version 2
run static-0-20190120-13:43:07-4960
attr configname static
attr datetime 20190120-13:43:07
attr experiment static
attr inifile omnetpp.ini
attr iterationvars ""
attr iterationvarsf ""
attr measurement ""
attr network DynamicTest
attr processid 4960
attr repetition 0
attr replication #0
attr resultdir results
attr runnumber 0
attr seedset 0
param *.scenarioManager.script "xml(\"<empty/>\")"
param **.ospf.ospfConfig "xmldoc(\"ASConfig.xml\")"
param **.ospf.helloInterval 1s
param **.ospf.retransmissionInterval 5s
param **.ospf.interfaceTransmissionDelay 1s
param **.ospf.routerDeadInterval 4s
param **.ospf.authentication.typename "\"NullType\""
param **.ospf.authenticationKey "\"0x00\""
param **.H*.numApps 5
param **.app[0].typename "\"UdpBasicApp\""
param **.app[0].destPort 1234
param **.app[0].messageLength "32 bytes"
param **.app[0].sendInterval 0.1s
param **.app[0].startTime 100s
param **.app[0].stopTime "this.startTime + 400s"
param **.H2.app[0].destAddresses "\"H1\""
param **.H1.app[0].destAddresses "\"H2\""
param **.app[1].typename "\"UdpEchoApp\""
param **.app[1].localPort 1234
param **.app[2].typename "\"UdpBasicApp\""
param **.app[2].destPort 1234
param **.app[2].messageLength "32 bytes"
param **.app[2].sendInterval 0.11s
param **.app[2].startTime 100s
param **.app[2].stopTime "this.startTime + 400s"
param **.H2.app[2].destAddresses "\"H1\""
param **.H1.app[2].destAddresses "\"H2\""
param **.app[3].typename "\"UdpBasicApp\""
param **.app[3].destPort 1234
param **.app[3].messageLength "32 bytes"
param **.app[3].sendInterval 0.3s
param **.app[3].startTime 100s
param **.app[3].stopTime "this.startTime + 400s"
param **.H2.app[3].destAddresses "\"H1\""
param **.H1.app[3].destAddresses "\"H2\""
param **.app[4].typename "\"UdpBasicApp\""
param **.app[4].destPort 1234
param **.app[4].messageLength "32 bytes"
param **.app[4].sendInterval 0.0001s
param **.app[4].startTime 100s
param **.app[4].stopTime "this.startTime + 400s"
param **.H2.app[4].destAddresses "\"H1\""
param **.H1.app[4].destAddresses "\"H2\""
param **.arp.cacheTimeout 1s
param *.configurator.addStaticRoutes false
param *.configurator.addSubnetRoutes false
param *.configurator.addDefaultRoutes false

vector 0 DynamicTest.RK.eth[1].encap encapPk:vector(packetBytes) ETV
attr interpolationmode none
attr source encapPk
attr title "packets encapsulated, vector(packetBytes)"
vector 1 DynamicTest.RK.eth[1].mac packetReceivedFromUpper:vector(packetBytes) ETV
attr interpolationmode none
attr source packetReceivedFromUpper
attr title "packet bytes from higher layer, vector(packetBytes)"
vector 2 DynamicTest.RK.eth[1].mac txPk:vector(packetBytes) ETV
attr interpolationmode none
attr source packetSentToLower
attr title "packets transmitted, vector(packetBytes)"
vector 3 DynamicTest.RL.eth[0].mac rxPkOk:vector(packetBytes) ETV
attr interpolationmode none
attr source rxPkOk
attr title "packets received OK, vector(packetBytes)"
vector 4 DynamicTest.RL.eth[0].mac passedUpPk:vector(packetBytes) ETV
attr interpolationmode none
attr source packetSentToUpper
attr title "packets passed to higher layer, vector(packetBytes)"
vector 5 DynamicTest.RL.eth[0].encap decapPk:vector(packetBytes) ETV
attr interpolationmode none
attr source decapPk
attr title "packets decapsulated, vector(packetBytes)"
vector 6 DynamicTest.RM.eth[2].encap encapPk:vector(packetBytes) ETV
attr interpolationmode none
attr source encapPk
attr title "packets encapsulated, vector(packetBytes)"
vector 7 DynamicTest.RM.eth[2].mac packetReceivedFromUpper:vector(packetBytes) ETV
attr interpolationmode none
attr source packetReceivedFromUpper
attr title "packet bytes from higher layer, vector(packetBytes)"
vector 8 DynamicTest.RM.eth[2].mac txPk:vector(packetBytes) ETV
attr interpolationmode none
attr source packetSentToLower
attr title "packets transmitted, vector(packetBytes)"
vector 9 DynamicTest.RL.eth[2].mac rxPkOk:vector(packetBytes) ETV
attr interpolationmode none
attr source rxPkOk
attr title "packets received OK, vector(packetBytes)"
vector 10 DynamicTest.RL.eth[2].mac passedUpPk:vector(packetBytes) ETV
attr interpolationmode none
attr source packetSentToUpper
attr title "packets passed to higher layer, vector(packetBytes)"
vector 11 DynamicTest.RL.eth[2].encap decapPk:vector(packetBytes) ETV
attr interpolationmode none
attr source decapPk
attr title "packets decapsulated, vector(packetBytes)"
vector 12 DynamicTest.RC.eth[1].encap encapPk:vector(packetBytes) ETV
attr interpolationmode none
attr source encapPk
attr title "packets encapsulated, vector(packetBytes)"
vector 13 DynamicTest.RC.eth[1].mac packetReceivedFromUpper:vector(packetBytes) ETV
attr interpolationmode none
attr source packetReceivedFromUpper
attr title "packet bytes from higher layer, vector(packetBytes)"
vector 14 DynamicTest.RC.eth[1].mac txPk:vector(packetBytes) ETV
attr interpolationmode none
attr source packetSentToLower
attr title "packets transmitted, vector(packetBytes)"
vector 15 DynamicTest.R2.eth[1].mac rxPkOk:vector(packetBytes) ETV
attr interpolationmode none
attr source rxPkOk
attr title "packets received OK, vector(packetBytes)"
vector 16 DynamicTest.R2.eth[1].mac passedUpPk:vector(packetBytes) ETV
attr interpolationmode none
attr source packetSentToUpper
attr title "packets passed to higher layer, vector(packetBytes)"
vector 17 DynamicTest.R2.eth[1].encap decapPk:vector(packetBytes) ETV
attr interpolationmode none
attr source decapPk
attr title "packets decapsulated, vector(packetBytes)"
vector 18 DynamicTest.RL.eth[1].encap encapPk:vector(packetBytes) ETV
attr interpolationmode none
attr source encapPk
attr title "packets encapsulated, vector(packetBytes)"
vector 19 DynamicTest.RL.eth[1].mac packetReceivedFromUpper:vector(packetBytes) ETV
attr interpolationmode none
attr source packetReceivedFromUpper
attr title "packet bytes from higher layer, vector(packetBytes)"
vector 20 DynamicTest.RL.eth[1].mac txPk:vector(packetBytes) ETV
attr interpolationmode none
attr source packetSentToLower
attr title "packets transmitted, vector(packetBytes)"
vector 21 DynamicTest.R2.eth[3].mac rxPkOk:vector(packetBytes) ETV
attr interpolationmode none
attr source rxPkOk
attr title "packets received OK, vector(packetBytes)"
vector 22 DynamicTest.R2.eth[3].mac passedUpPk:vector(packetBytes) ETV
attr interpolationmode none
attr source packetSentToUpper
attr title "packets passed to higher layer, vector(packetBytes)"
vector 23 DynamicTest.R2.eth[3].encap decapPk:vector(packetBytes) ETV
attr interpolationmode none
attr source decapPk
attr title "packets decapsulated, vector(packetBytes)"
vector 24 DynamicTest.RA.eth[2].encap encapPk:vector(packetBytes) ETV
attr interpolationmode none
attr source encapPk
attr title "packets encapsulated, vector(packetBytes)"
vector 25 DynamicTest.RA.eth[2].mac packetReceivedFromUpper:vector(packetBytes) ETV
attr interpolationmode none
attr source packetReceivedFromUpper
attr title "packet bytes from higher layer, vector(packetBytes)"
vector 26 DynamicTest.RA.eth[2].mac txPk:vector(packetBytes) ETV
attr interpolationmode none
attr source packetSentToLower
attr title "packets transmitted, vector(packetBytes)"
vector 27 DynamicTest.RU.eth[0].mac rxPkOk:vector(packetBytes) ETV
attr interpolationmode none
attr source rxPkOk
attr title "packets received OK, vector(packetBytes)"
vector 28 DynamicTest.RU.eth[0].mac passedUpPk:vector(packetBytes) ETV
attr interpolationmode none
attr source packetSentToUpper
attr title "packets passed to higher layer, vector(packetBytes)"
vector 29 DynamicTest.RU.eth[0].encap decapPk:vector(packetBytes) ETV
attr interpolationmode none
attr source decapPk
attr title "packets decapsulated, vector(packetBytes)"
vector 30 DynamicTest.R1.eth[0].encap encapPk:vector(packetBytes) ETV
attr interpolationmode none
attr source encapPk
attr title "packets encapsulated, vector(packetBytes)"
vector 31 DynamicTest.R1.eth[0].mac packetReceivedFromUpper:vector(packetBytes) ETV
attr interpolationmode none
attr source packetReceivedFromUpper
attr title "packet bytes from higher layer, vector(packetBytes)"
vector 32 DynamicTest.R1.eth[0].mac txPk:vector(packetBytes) ETV
attr interpolationmode none
attr source packetSentToLower
attr title "packets transmitted, vector(packetBytes)"
vector 33 DynamicTest.H1.eth[0].mac rxPkOk:vector(packetBytes) ETV
attr interpolationmode none
attr source rxPkOk
attr title "packets received OK, vector(packetBytes)"
vector 34 DynamicTest.H1.eth[0].mac passedUpPk:vector(packetBytes) ETV
attr interpolationmode none
attr source packetSentToUpper
attr title "packets passed to higher layer, vector(packetBytes)"
vector 35 DynamicTest.H1.eth[0].encap decapPk:vector(packetBytes) ETV
attr interpolationmode none
attr source decapPk
attr title "packets decapsulated, vector(packetBytes)"
vector 36 DynamicTest.RC.eth[2].encap encapPk:vector(packetBytes) ETV
attr interpolationmode none
attr source encapPk
attr title "packets encapsulated, vector(packetBytes)"
vector 37 DynamicTest.RC.eth[2].mac packetReceivedFromUpper:vector(packetBytes) ETV
attr interpolationmode none
attr source packetReceivedFromUpper
attr title "packet bytes from higher layer, vector(packetBytes)"
vector 38 DynamicTest.RC.eth[2].mac txPk:vector(packetBytes) ETV
attr interpolationmode none
attr source packetSentToLower
attr title "packets transmitted, vector(packetBytes)"
vector 39 DynamicTest.RP.eth[0].mac rxPkOk:vector(packetBytes) ETV
attr interpolationmode none
attr source rxPkOk
attr title "packets received OK, vector(packetBytes)"
vector 40 DynamicTest.RP.eth[0].mac passedUpPk:vector(packetBytes) ETV
attr interpolationmode none
attr source packetSentToUpper
attr title "packets passed to higher layer, vector(packetBytes)"
vector 41 DynamicTest.RP.eth[0].encap decapPk:vector(packetBytes) ETV
attr interpolationmode none
attr source decapPk
attr title "packets decapsulated, vector(packetBytes)"
vector 42 DynamicTest.RB.eth[1].encap encapPk:vector(packetBytes) ETV
attr interpolationmode none
attr source encapPk
attr title "packets encapsulated, vector(packetBytes)"
vector 43 DynamicTest.RB.eth[1].mac packetReceivedFromUpper:vector(packetBytes) ETV
attr interpolationmode none
attr source packetReceivedFromUpper
attr title "packet bytes from higher layer, vector(packetBytes)"
vector 44 DynamicTest.RB.eth[1].mac txPk:vector(packetBytes) ETV
attr interpolationmode none
attr source packetSentToLower
attr title "packets transmitted, vector(packetBytes)"
vector 45 DynamicTest.RD.eth[0].mac rxPkOk:vector(packetBytes) ETV
attr interpolationmode none
attr source rxPkOk
attr title "packets received OK, vector(packetBytes)"
vector 46 DynamicTest.RD.eth[0].mac passedUpPk:vector(packetBytes) ETV
attr interpolationmode none
attr source packetSentToUpper
attr title "packets passed to higher layer, vector(packetBytes)"
vector 47 DynamicTest.RD.eth[0].encap decapPk:vector(packetBytes) ETV
attr interpolationmode none
attr source decapPk
attr title "packets decapsulated, vector(packetBytes)"
vector 48 DynamicTest.RM.eth[0].encap encapPk:vector(packetBytes) ETV
attr interpolationmode none
attr source encapPk
attr title "packets encapsulated, vector(packetBytes)"
vector 49 DynamicTest.RM.eth[0].mac packetReceivedFromUpper:vector(packetBytes) ETV
attr interpolationmode none
attr source packetReceivedFromUpper
attr title "packet bytes from higher layer, vector(packetBytes)"
vector 50 DynamicTest.RM.eth[0].mac txPk:vector(packetBytes) ETV
attr interpolationmode none
attr source packetSentToLower
attr title "packets transmitted, vector(packetBytes)"
vector 51 DynamicTest.H3.eth[0].mac rxPkOk:vector(packetBytes) ETV
attr interpolationmode none
attr source rxPkOk
attr title "packets received OK, vector(packetBytes)"
vector 52 DynamicTest.H3.eth[0].mac passedUpPk:vector(packetBytes) ETV
attr interpolationmode none
attr source packetSentToUpper
attr title "packets passed to higher layer, vector(packetBytes)"
vector 53 DynamicTest.H3.eth[0].encap decapPk:vector(packetBytes) ETV
attr interpolationmode none
attr source decapPk
attr title "packets decapsulated, vector(packetBytes)"
vector 54 DynamicTest.RA.eth[1].encap encapPk:vector(packetBytes) ETV
attr interpolationmode none
attr source encapPk
attr title "packets encapsulated, vector(packetBytes)"
vector 55 DynamicTest.RA.eth[1].mac packetReceivedFromUpper:vector(packetBytes) ETV
attr interpolationmode none
attr source packetReceivedFromUpper
attr title "packet bytes from higher layer, vector(packetBytes)"
vector 56 DynamicTest.RA.eth[1].mac txPk:vector(packetBytes) ETV
attr interpolationmode none
attr source packetSentToLower
attr title "packets transmitted, vector(packetBytes)"
vector 57 DynamicTest.RC.eth[0].mac rxPkOk:vector(packetBytes) ETV
attr interpolationmode none
attr source rxPkOk
attr title "packets received OK, vector(packetBytes)"
vector 58 DynamicTest.RC.eth[0].mac passedUpPk:vector(packetBytes) ETV
attr interpolationmode none
attr source packetSentToUpper
attr title "packets passed to higher layer, vector(packetBytes)"
vector 59 DynamicTest.RC.eth[0].encap decapPk:vector(packetBytes) ETV
attr interpolationmode none
attr source decapPk
attr title "packets decapsulated, vector(packetBytes)"
vector 60 DynamicTest.RP.eth[0].encap encapPk:vector(packetBytes) ETV
attr interpolationmode none
attr source encapPk
attr title "packets encapsulated, vector(packetBytes)"
vector 61 DynamicTest.RP.eth[0].mac packetReceivedFromUpper:vector(packetBytes) ETV
attr interpolationmode none
attr source packetReceivedFromUpper
attr title "packet bytes from higher layer, vector(packetBytes)"
vector 62 DynamicTest.RP.eth[0].mac txPk:vector(packetBytes) ETV
attr interpolationmode none
attr source packetSentToLower
attr title "packets transmitted, vector(packetBytes)"
vector 63 DynamicTest.RC.eth[2].mac rxPkOk:vector(packetBytes) ETV
attr interpolationmode none
attr source rxPkOk
attr title "packets received OK, vector(packetBytes)"
vector 64 DynamicTest.RC.eth[2].mac passedUpPk:vector(packetBytes) ETV
attr interpolationmode none
attr source packetSentToUpper
attr title "packets passed to higher layer, vector(packetBytes)"
vector 65 DynamicTest.RC.eth[2].encap decapPk:vector(packetBytes) ETV
attr interpolationmode none
attr source decapPk
attr title "packets decapsulated, vector(packetBytes)"
vector 66 DynamicTest.RB.eth[0].encap encapPk:vector(packetBytes) ETV
attr interpolationmode none
attr source encapPk
attr title "packets encapsulated, vector(packetBytes)"
vector 67 DynamicTest.RB.eth[0].mac packetReceivedFromUpper:vector(packetBytes) ETV
attr interpolationmode none
attr source packetReceivedFromUpper
attr title "packet bytes from higher layer, vector(packetBytes)"
vector 68 DynamicTest.RB.eth[0].mac txPk:vector(packetBytes) ETV
attr interpolationmode none
attr source packetSentToLower
attr title "packets transmitted, vector(packetBytes)"
vector 69 DynamicTest.R1.eth[2].mac rxPkOk:vector(packetBytes) ETV
attr interpolationmode none
attr source rxPkOk
attr title "packets received OK, vector(packetBytes)"
vector 70 DynamicTest.R1.eth[2].mac passedUpPk:vector(packetBytes) ETV
attr interpolationmode none
attr source packetSentToUpper
attr title "packets passed to higher layer, vector(packetBytes)"
vector 71 DynamicTest.R1.eth[2].encap decapPk:vector(packetBytes) ETV
attr interpolationmode none
attr source decapPk
attr title "packets decapsulated, vector(packetBytes)"
vector 72 DynamicTest.RU.eth[0].encap encapPk:vector(packetBytes) ETV
attr interpolationmode none
attr source encapPk
attr title "packets encapsulated, vector(packetBytes)"
vector 73 DynamicTest.RU.eth[0].mac packetReceivedFromUpper:vector(packetBytes) ETV
attr interpolationmode none
attr source packetReceivedFromUpper
attr title "packet bytes from higher layer, vector(packetBytes)"
vector 74 DynamicTest.RU.eth[0].mac txPk:vector(packetBytes) ETV
attr interpolationmode none
attr source packetSentToLower
attr title "packets transmitted, vector(packetBytes)"
vector 75 DynamicTest.RA.eth[2].mac rxPkOk:vector(packetBytes) ETV
attr interpolationmode none
attr source rxPkOk
attr title "packets received OK, vector(packetBytes)"
vector 76 DynamicTest.RA.eth[2].mac passedUpPk:vector(packetBytes) ETV
attr interpolationmode none
attr source packetSentToUpper
attr title "packets passed to higher layer, vector(packetBytes)"
vector 77 DynamicTest.RA.eth[2].encap decapPk:vector(packetBytes) ETV
attr interpolationmode none
attr source decapPk
attr title "packets decapsulated, vector(packetBytes)"
vector 78 DynamicTest.R2.eth[0].encap encapPk:vector(packetBytes) ETV
attr interpolationmode none
attr source encapPk
attr title "packets encapsulated, vector(packetBytes)"
vector 79 DynamicTest.R2.eth[0].mac packetReceivedFromUpper:vector(packetBytes) ETV
attr interpolationmode none
attr source packetReceivedFromUpper
attr title "packet bytes from higher layer, vector(packetBytes)"
vector 80 DynamicTest.R2.eth[0].mac txPk:vector(packetBytes) ETV
attr interpolationmode none
attr source packetSentToLower
attr title "packets transmitted, vector(packetBytes)"
vector 81 DynamicTest.H2.eth[0].mac rxPkOk:vector(packetBytes) ETV
attr interpolationmode none
attr source rxPkOk
attr title "packets received OK, vector(packetBytes)"
vector 82 DynamicTest.H2.eth[0].mac passedUpPk:vector(packetBytes) ETV
attr interpolationmode none
attr source packetSentToUpper
attr title "packets passed to higher layer, vector(packetBytes)"
vector 83 DynamicTest.H2.eth[0].encap decapPk:vector(packetBytes) ETV
attr interpolationmode none
attr source decapPk
attr title "packets decapsulated, vector(packetBytes)"
vector 84 DynamicTest.RD.eth[1].encap encapPk:vector(packetBytes) ETV
attr interpolationmode none
attr source encapPk
attr title "packets encapsulated, vector(packetBytes)"
vector 85 DynamicTest.RD.eth[1].mac packetReceivedFromUpper:vector(packetBytes) ETV
attr interpolationmode none
attr source packetReceivedFromUpper
attr title "packet bytes from higher layer, vector(packetBytes)"
vector 86 DynamicTest.RD.eth[1].mac txPk:vector(packetBytes) ETV
attr interpolationmode none
attr source packetSentToLower
attr title "packets transmitted, vector(packetBytes)"
vector 87 DynamicTest.R2.eth[2].mac rxPkOk:vector(packetBytes) ETV
attr interpolationmode none
attr source rxPkOk
attr title "packets received OK, vector(packetBytes)"
vector 88 DynamicTest.R2.eth[2].mac passedUpPk:vector(packetBytes) ETV
attr interpolationmode none
attr source packetSentToUpper
attr title "packets passed to higher layer, vector(packetBytes)"
vector 89 DynamicTest.R2.eth[2].encap decapPk:vector(packetBytes) ETV
attr interpolationmode none
attr source decapPk
attr title "packets decapsulated, vector(packetBytes)"
vector 90 DynamicTest.R2.eth[1].encap encapPk:vector(packetBytes) ETV
attr interpolationmode none
attr source encapPk
attr title "packets encapsulated, vector(packetBytes)"
vector 91 DynamicTest.R2.eth[1].mac packetReceivedFromUpper:vector(packetBytes) ETV
attr interpolationmode none
attr source packetReceivedFromUpper
attr title "packet bytes from higher layer, vector(packetBytes)"
vector 92 DynamicTest.R2.eth[1].mac txPk:vector(packetBytes) ETV
attr interpolationmode none
attr source packetSentToLower
attr title "packets transmitted, vector(packetBytes)"
vector 93 DynamicTest.RC.eth[1].mac rxPkOk:vector(packetBytes) ETV
attr interpolationmode none
attr source rxPkOk
attr title "packets received OK, vector(packetBytes)"
vector 94 DynamicTest.RC.eth[1].mac passedUpPk:vector(packetBytes) ETV
attr interpolationmode none
attr source packetSentToUpper
attr title "packets passed to higher layer, vector(packetBytes)"
vector 95 DynamicTest.RC.eth[1].encap decapPk:vector(packetBytes) ETV
attr interpolationmode none
attr source decapPk
attr title "packets decapsulated, vector(packetBytes)"
vector 96 DynamicTest.RM.eth[1].encap encapPk:vector(packetBytes) ETV
attr interpolationmode none
attr source encapPk
attr title "packets encapsulated, vector(packetBytes)"
vector 97 DynamicTest.RM.eth[1].mac packetReceivedFromUpper:vector(packetBytes) ETV
attr interpolationmode none
attr source packetReceivedFromUpper
attr title "packet bytes from higher layer, vector(packetBytes)"
vector 98 DynamicTest.RM.eth[1].mac txPk:vector(packetBytes) ETV
attr interpolationmode none
attr source packetSentToLower
attr title "packets transmitted, vector(packetBytes)"
vector 99 DynamicTest.RK.eth[2].mac rxPkOk:vector(packetBytes) ETV
attr interpolationmode none
attr source rxPkOk
attr title "packets received OK, vector(packetBytes)"
vector 100 DynamicTest.RK.eth[2].mac passedUpPk:vector(packetBytes) ETV
attr interpolationmode none
attr source packetSentToUpper
attr title "packets passed to higher layer, vector(packetBytes)"
vector 101 DynamicTest.RK.eth[2].encap decapPk:vector(packetBytes) ETV
attr interpolationmode none
attr source decapPk
attr title "packets decapsulated, vector(packetBytes)"
vector 102 DynamicTest.RP.eth[1].encap encapPk:vector(packetBytes) ETV
attr interpolationmode none
attr source encapPk
attr title "packets encapsulated, vector(packetBytes)"
vector 103 DynamicTest.RP.eth[1].mac packetReceivedFromUpper:vector(packetBytes) ETV
attr interpolationmode none
attr source packetReceivedFromUpper
attr title "packet bytes from higher layer, vector(packetBytes)"
vector 104 DynamicTest.RP.eth[1].mac txPk:vector(packetBytes) ETV
attr interpolationmode none
attr source packetSentToLower
attr title "packets transmitted, vector(packetBytes)"
vector 105 DynamicTest.R2.eth[4].mac rxPkOk:vector(packetBytes) ETV
attr interpolationmode none
attr source rxPkOk
attr title "packets received OK, vector(packetBytes)"
vector 106 DynamicTest.R2.eth[4].mac passedUpPk:vector(packetBytes) ETV
attr interpolationmode none
attr source packetSentToUpper
attr title "packets passed to higher layer, vector(packetBytes)"
vector 107 DynamicTest.R2.eth[4].encap decapPk:vector(packetBytes) ETV
attr interpolationmode none
attr source decapPk
attr title "packets decapsulated, vector(packetBytes)"
vector 108 DynamicTest.RL.eth[0].encap encapPk:vector(packetBytes) ETV
attr interpolationmode none
attr source encapPk
attr title "packets encapsulated, vector(packetBytes)"
vector 109 DynamicTest.RL.eth[0].mac packetReceivedFromUpper:vector(packetBytes) ETV
attr interpolationmode none
attr source packetReceivedFromUpper
attr title "packet bytes from higher layer, vector(packetBytes)"
vector 110 DynamicTest.RL.eth[0].mac txPk:vector(packetBytes) ETV
attr interpolationmode none
attr source packetSentToLower
attr title "packets transmitted, vector(packetBytes)"
vector 111 DynamicTest.RK.eth[1].mac rxPkOk:vector(packetBytes) ETV
attr interpolationmode none
attr source rxPkOk
attr title "packets received OK, vector(packetBytes)"
vector 112 DynamicTest.RK.eth[1].mac passedUpPk:vector(packetBytes) ETV
attr interpolationmode none
attr source packetSentToUpper
attr title "packets passed to higher layer, vector(packetBytes)"
vector 113 DynamicTest.RK.eth[1].encap decapPk:vector(packetBytes) ETV
attr interpolationmode none
attr source decapPk
attr title "packets decapsulated, vector(packetBytes)"
vector 114 DynamicTest.RC.eth[0].encap encapPk:vector(packetBytes) ETV
attr interpolationmode none
attr source encapPk
attr title "packets encapsulated, vector(packetBytes)"
vector 115 DynamicTest.RC.eth[0].mac packetReceivedFromUpper:vector(packetBytes) ETV
attr interpolationmode none
attr source packetReceivedFromUpper
attr title "packet bytes from higher layer, vector(packetBytes)"
vector 116 DynamicTest.RC.eth[0].mac txPk:vector(packetBytes) ETV
attr interpolationmode none
attr source packetSentToLower
attr title "packets transmitted, vector(packetBytes)"
vector 117 DynamicTest.RA.eth[1].mac rxPkOk:vector(packetBytes) ETV
attr interpolationmode none
attr source rxPkOk
attr title "packets received OK, vector(packetBytes)"
vector 118 DynamicTest.RA.eth[1].mac passedUpPk:vector(packetBytes) ETV
attr interpolationmode none
attr source packetSentToUpper
attr title "packets passed to higher layer, vector(packetBytes)"
vector 119 DynamicTest.RA.eth[1].encap decapPk:vector(packetBytes) ETV
attr interpolationmode none
attr source decapPk
attr title "packets decapsulated, vector(packetBytes)"
vector 120 DynamicTest.RA.eth[0].encap encapPk:vector(packetBytes) ETV
attr interpolationmode none
attr source encapPk
attr title "packets encapsulated, vector(packetBytes)"
vector 121 DynamicTest.RA.eth[0].mac packetReceivedFromUpper:vector(packetBytes) ETV
attr interpolationmode none
attr source packetReceivedFromUpper
attr title "packet bytes from higher layer, vector(packetBytes)"
vector 122 DynamicTest.RA.eth[0].mac txPk:vector(packetBytes) ETV
attr interpolationmode none
attr source packetSentToLower
attr title "packets transmitted, vector(packetBytes)"
vector 123 DynamicTest.R1.eth[1].mac rxPkOk:vector(packetBytes) ETV
attr interpolationmode none
attr source rxPkOk
attr title "packets received OK, vector(packetBytes)"
vector 124 DynamicTest.R1.eth[1].mac passedUpPk:vector(packetBytes) ETV
attr interpolationmode none
attr source packetSentToUpper
attr title "packets passed to higher layer, vector(packetBytes)"
vector 125 DynamicTest.R1.eth[1].encap decapPk:vector(packetBytes) ETV
attr interpolationmode none
attr source decapPk
attr title "packets decapsulated, vector(packetBytes)"
vector 126 DynamicTest.R1.eth[2].encap encapPk:vector(packetBytes) ETV
attr interpolationmode none
attr source encapPk
attr title "packets encapsulated, vector(packetBytes)"
vector 127 DynamicTest.R1.eth[2].mac packetReceivedFromUpper:vector(packetBytes) ETV
attr interpolationmode none
attr source packetReceivedFromUpper
attr title "packet bytes from higher layer, vector(packetBytes)"
vector 128 DynamicTest.R1.eth[2].mac txPk:vector(packetBytes) ETV
attr interpolationmode none
attr source packetSentToLower
attr title "packets transmitted, vector(packetBytes)"
vector 129 DynamicTest.RB.eth[0].mac rxPkOk:vector(packetBytes) ETV
attr interpolationmode none
attr source rxPkOk
attr title "packets received OK, vector(packetBytes)"
vector 130 DynamicTest.RB.eth[0].mac passedUpPk:vector(packetBytes) ETV
attr interpolationmode none
attr source packetSentToUpper
attr title "packets passed to higher layer, vector(packetBytes)"
vector 131 DynamicTest.RB.eth[0].encap decapPk:vector(packetBytes) ETV
attr interpolationmode none
attr source decapPk
attr title "packets decapsulated, vector(packetBytes)"
vector 132 DynamicTest.R1.eth[1].encap encapPk:vector(packetBytes) ETV
attr interpolationmode none
attr source encapPk
attr title "packets encapsulated, vector(packetBytes)"
vector 133 DynamicTest.R1.eth[1].mac packetReceivedFromUpper:vector(packetBytes) ETV
attr interpolationmode none
attr source packetReceivedFromUpper
attr title "packet bytes from higher layer, vector(packetBytes)"
vector 134 DynamicTest.R1.eth[1].mac txPk:vector(packetBytes) ETV
attr interpolationmode none
attr source packetSentToLower
attr title "packets transmitted, vector(packetBytes)"
vector 135 DynamicTest.RA.eth[0].mac rxPkOk:vector(packetBytes) ETV
attr interpolationmode none
attr source rxPkOk
attr title "packets received OK, vector(packetBytes)"
vector 136 DynamicTest.RA.eth[0].mac passedUpPk:vector(packetBytes) ETV
attr interpolationmode none
attr source packetSentToUpper
attr title "packets passed to higher layer, vector(packetBytes)"
vector 137 DynamicTest.RA.eth[0].encap decapPk:vector(packetBytes) ETV
attr interpolationmode none
attr source decapPk
attr title "packets decapsulated, vector(packetBytes)"
vector 138 DynamicTest.R2.eth[3].encap encapPk:vector(packetBytes) ETV
attr interpolationmode none
attr source encapPk
attr title "packets encapsulated, vector(packetBytes)"
vector 139 DynamicTest.R2.eth[3].mac packetReceivedFromUpper:vector(packetBytes) ETV
attr interpolationmode none
attr source packetReceivedFromUpper
attr title "packet bytes from higher layer, vector(packetBytes)"
vector 140 DynamicTest.R2.eth[3].mac txPk:vector(packetBytes) ETV
attr interpolationmode none
attr source packetSentToLower
attr title "packets transmitted, vector(packetBytes)"
vector 141 DynamicTest.RL.eth[1].mac rxPkOk:vector(packetBytes) ETV
attr interpolationmode none
attr source rxPkOk
attr title "packets received OK, vector(packetBytes)"
vector 142 DynamicTest.RL.eth[1].mac passedUpPk:vector(packetBytes) ETV
attr interpolationmode none
attr source packetSentToUpper
attr title "packets passed to higher layer, vector(packetBytes)"
vector 143 DynamicTest.RL.eth[1].encap decapPk:vector(packetBytes) ETV
attr interpolationmode none
attr source decapPk
attr title "packets decapsulated, vector(packetBytes)"
vector 144 DynamicTest.RD.eth[0].encap encapPk:vector(packetBytes) ETV
attr interpolationmode none
attr source encapPk
attr title "packets encapsulated, vector(packetBytes)"
vector 145 DynamicTest.RD.eth[0].mac packetReceivedFromUpper:vector(packetBytes) ETV
attr interpolationmode none
attr source packetReceivedFromUpper
attr title "packet bytes from higher layer, vector(packetBytes)"
vector 146 DynamicTest.RD.eth[0].mac txPk:vector(packetBytes) ETV
attr interpolationmode none
attr source packetSentToLower
attr title "packets transmitted, vector(packetBytes)"
vector 147 DynamicTest.RB.eth[1].mac rxPkOk:vector(packetBytes) ETV
attr interpolationmode none
attr source rxPkOk
attr title "packets received OK, vector(packetBytes)"
vector 148 DynamicTest.RB.eth[1].mac passedUpPk:vector(packetBytes) ETV
attr interpolationmode none
attr source packetSentToUpper
attr title "packets passed to higher layer, vector(packetBytes)"
vector 149 DynamicTest.RB.eth[1].encap decapPk:vector(packetBytes) ETV
attr interpolationmode none
attr source decapPk
attr title "packets decapsulated, vector(packetBytes)"
vector 150 DynamicTest.RK.eth[0].encap encapPk:vector(packetBytes) ETV
attr interpolationmode none
attr source encapPk
attr title "packets encapsulated, vector(packetBytes)"
vector 151 DynamicTest.RK.eth[0].mac packetReceivedFromUpper:vector(packetBytes) ETV
attr interpolationmode none
attr source packetReceivedFromUpper
attr title "packet bytes from higher layer, vector(packetBytes)"
vector 152 DynamicTest.RK.eth[0].mac txPk:vector(packetBytes) ETV
attr interpolationmode none
attr source packetSentToLower
attr title "packets transmitted, vector(packetBytes)"
vector 153 DynamicTest.R1.eth[3].mac rxPkOk:vector(packetBytes) ETV
attr interpolationmode none
attr source rxPkOk
attr title "packets received OK, vector(packetBytes)"
vector 154 DynamicTest.R1.eth[3].mac passedUpPk:vector(packetBytes) ETV
attr interpolationmode none
attr source packetSentToUpper
attr title "packets passed to higher layer, vector(packetBytes)"
vector 155 DynamicTest.R1.eth[3].encap decapPk:vector(packetBytes) ETV
attr interpolationmode none
attr source decapPk
attr title "packets decapsulated, vector(packetBytes)"
vector 156 DynamicTest.R2.eth[2].encap encapPk:vector(packetBytes) ETV
attr interpolationmode none
attr source encapPk
attr title "packets encapsulated, vector(packetBytes)"
vector 157 DynamicTest.R2.eth[2].mac packetReceivedFromUpper:vector(packetBytes) ETV
attr interpolationmode none
attr source packetReceivedFromUpper
attr title "packet bytes from higher layer, vector(packetBytes)"
vector 158 DynamicTest.R2.eth[2].mac txPk:vector(packetBytes) ETV
attr interpolationmode none
attr source packetSentToLower
attr title "packets transmitted, vector(packetBytes)"
vector 159 DynamicTest.RD.eth[1].mac rxPkOk:vector(packetBytes) ETV
attr interpolationmode none
attr source rxPkOk
attr title "packets received OK, vector(packetBytes)"
vector 160 DynamicTest.RD.eth[1].mac passedUpPk:vector(packetBytes) ETV
attr interpolationmode none
attr source packetSentToUpper
attr title "packets passed to higher layer, vector(packetBytes)"
vector 161 DynamicTest.RD.eth[1].encap decapPk:vector(packetBytes) ETV
attr interpolationmode none
attr source decapPk
attr title "packets decapsulated, vector(packetBytes)"
vector 162 DynamicTest.RU.eth[1].encap encapPk:vector(packetBytes) ETV
attr interpolationmode none
attr source encapPk
attr title "packets encapsulated, vector(packetBytes)"
vector 163 DynamicTest.RU.eth[1].mac packetReceivedFromUpper:vector(packetBytes) ETV
attr interpolationmode none
attr source packetReceivedFromUpper
attr title "packet bytes from higher layer, vector(packetBytes)"
vector 164 DynamicTest.RU.eth[1].mac txPk:vector(packetBytes) ETV
attr interpolationmode none
attr source packetSentToLower
attr title "packets transmitted, vector(packetBytes)"
vector 165 DynamicTest.RC.eth[3].mac rxPkOk:vector(packetBytes) ETV
attr interpolationmode none
attr source rxPkOk
attr title "packets received OK, vector(packetBytes)"
vector 166 DynamicTest.RC.eth[3].mac passedUpPk:vector(packetBytes) ETV
attr interpolationmode none
attr source packetSentToUpper
attr title "packets passed to higher layer, vector(packetBytes)"
vector 167 DynamicTest.RC.eth[3].encap decapPk:vector(packetBytes) ETV
attr interpolationmode none
attr source decapPk
attr title "packets decapsulated, vector(packetBytes)"
vector 168 DynamicTest.RC.ipv4.arp arpRequestSent:vector(packetBytes) ETV
attr source arpRequestSent
attr title "ARP request sent, vector(packetBytes)"
vector 169 DynamicTest.RP.ipv4.arp arpRequestSent:vector(packetBytes) ETV
attr source arpRequestSent
attr title "ARP request sent, vector(packetBytes)"
vector 170 DynamicTest.RP.ipv4.arp arpReplySent:vector(packetBytes) ETV
attr source arpReplySent
attr title "ARP replies sent, vector(packetBytes)"
vector 171 DynamicTest.RC.ipv4.arp arpReplySent:vector(packetBytes) ETV
attr source arpReplySent
attr title "ARP replies sent, vector(packetBytes)"
vector 172 DynamicTest.RA.ipv4.arp arpRequestSent:vector(packetBytes) ETV
attr source arpRequestSent
attr title "ARP request sent, vector(packetBytes)"
vector 173 DynamicTest.RU.ipv4.arp arpRequestSent:vector(packetBytes) ETV
attr source arpRequestSent
attr title "ARP request sent, vector(packetBytes)"
vector 174 DynamicTest.RU.ipv4.arp arpReplySent:vector(packetBytes) ETV
attr source arpReplySent
attr title "ARP replies sent, vector(packetBytes)"
vector 175 DynamicTest.RA.ipv4.arp arpReplySent:vector(packetBytes) ETV
attr source arpReplySent
attr title "ARP replies sent, vector(packetBytes)"
vector 176 DynamicTest.R2.ipv4.arp arpRequestSent:vector(packetBytes) ETV
attr source arpRequestSent
attr title "ARP request sent, vector(packetBytes)"
vector 177 DynamicTest.R2.ipv4.arp arpReplySent:vector(packetBytes) ETV
attr source arpReplySent
attr title "ARP replies sent, vector(packetBytes)"
vector 178 DynamicTest.RK.ipv4.arp arpRequestSent:vector(packetBytes) ETV
attr source arpRequestSent
attr title "ARP request sent, vector(packetBytes)"
vector 179 DynamicTest.RL.ipv4.arp arpRequestSent:vector(packetBytes) ETV
attr source arpRequestSent
attr title "ARP request sent, vector(packetBytes)"
vector 180 DynamicTest.RL.ipv4.arp arpReplySent:vector(packetBytes) ETV
attr source arpReplySent
attr title "ARP replies sent, vector(packetBytes)"
vector 181 DynamicTest.RK.ipv4.arp arpReplySent:vector(packetBytes) ETV
attr source arpReplySent
attr title "ARP replies sent, vector(packetBytes)"
vector 182 DynamicTest.R1.ipv4.arp arpRequestSent:vector(packetBytes) ETV
attr source arpRequestSent
attr title "ARP request sent, vector(packetBytes)"
vector 183 DynamicTest.RB.ipv4.arp arpReplySent:vector(packetBytes) ETV
attr source arpReplySent
attr title "ARP replies sent, vector(packetBytes)"
vector 184 DynamicTest.R1.ipv4.arp arpReplySent:vector(packetBytes) ETV
attr source arpReplySent
attr title "ARP replies sent, vector(packetBytes)"
vector 185 DynamicTest.RB.ipv4.arp arpRequestSent:vector(packetBytes) ETV
attr source arpRequestSent
attr title "ARP request sent, vector(packetBytes)"
vector 186 DynamicTest.RD.ipv4.arp arpReplySent:vector(packetBytes) ETV
attr source arpReplySent
attr title "ARP replies sent, vector(packetBytes)"
vector 187 DynamicTest.H1.app[0] packetSent:vector(packetBytes) ETV
attr interpolationmode none
attr source packetSent
attr title "packets sent, vector(packetBytes)"
vector 188 DynamicTest.H1.app[2] packetSent:vector(packetBytes) ETV
attr interpolationmode none
attr source packetSent
attr title "packets sent, vector(packetBytes)"
vector 189 DynamicTest.H1.app[3] packetSent:vector(packetBytes) ETV
attr interpolationmode none
attr source packetSent
attr title "packets sent, vector(packetBytes)"
vector 190 DynamicTest.H1.app[4] packetSent:vector(packetBytes) ETV
attr interpolationmode none
attr source packetSent
attr title "packets sent, vector(packetBytes)"
vector 191 DynamicTest.H2.app[0] packetSent:vector(packetBytes) ETV
attr interpolationmode none
attr source packetSent
attr title "packets sent, vector(packetBytes)"
vector 192 DynamicTest.H2.app[2] packetSent:vector(packetBytes) ETV
attr interpolationmode none
attr source packetSent
attr title "packets sent, vector(packetBytes)"
vector 193 DynamicTest.H2.app[3] packetSent:vector(packetBytes) ETV
attr interpolationmode none
attr source packetSent
attr title "packets sent, vector(packetBytes)"
vector 194 DynamicTest.H2.app[4] packetSent:vector(packetBytes) ETV
attr interpolationmode none
attr source packetSent
attr title "packets sent, vector(packetBytes)"
vector 195 DynamicTest.H1.udp packetSent:vector(packetBytes) ETV
attr interpolationmode none
attr source packetSent
attr title "packets sent, vector(packetBytes)"
vector 196 DynamicTest.H2.udp packetSent:vector(packetBytes) ETV
attr interpolationmode none
attr source packetSent
attr title "packets sent, vector(packetBytes)"
vector 197 DynamicTest.H1.ipv4.arp arpRequestSent:vector(packetBytes) ETV
attr source arpRequestSent
attr title "ARP request sent, vector(packetBytes)"
vector 198 DynamicTest.H2.ipv4.arp arpRequestSent:vector(packetBytes) ETV
attr source arpRequestSent
attr title "ARP request sent, vector(packetBytes)"
vector 199 DynamicTest.H1.eth[0].encap encapPk:vector(packetBytes) ETV
attr interpolationmode none
attr source encapPk
attr title "packets encapsulated, vector(packetBytes)"
vector 200 DynamicTest.H2.eth[0].encap encapPk:vector(packetBytes) ETV
attr interpolationmode none
attr source encapPk
attr title "packets encapsulated, vector(packetBytes)"
vector 201 DynamicTest.H1.eth[0].mac packetReceivedFromUpper:vector(packetBytes) ETV
attr interpolationmode none
attr source packetReceivedFromUpper
attr title "packet bytes from higher layer, vector(packetBytes)"
vector 202 DynamicTest.H2.eth[0].mac packetReceivedFromUpper:vector(packetBytes) ETV
attr interpolationmode none
attr source packetReceivedFromUpper
attr title "packet bytes from higher layer, vector(packetBytes)"
vector 203 DynamicTest.H1.eth[0].mac txPk:vector(packetBytes) ETV
attr interpolationmode none
attr source packetSentToLower
attr title "packets transmitted, vector(packetBytes)"
vector 204 DynamicTest.H2.eth[0].mac txPk:vector(packetBytes) ETV
attr interpolationmode none
attr source packetSentToLower
attr title "packets transmitted, vector(packetBytes)"
vector 205 DynamicTest.R1.eth[0].mac rxPkOk:vector(packetBytes) ETV
attr interpolationmode none
attr source rxPkOk
attr title "packets received OK, vector(packetBytes)"
vector 206 DynamicTest.R1.eth[0].mac passedUpPk:vector(packetBytes) ETV
attr interpolationmode none
attr source packetSentToUpper
attr title "packets passed to higher layer, vector(packetBytes)"
vector 207 DynamicTest.R2.eth[0].mac rxPkOk:vector(packetBytes) ETV
attr interpolationmode none
attr source rxPkOk
attr title "packets received OK, vector(packetBytes)"
vector 208 DynamicTest.R2.eth[0].mac passedUpPk:vector(packetBytes) ETV
attr interpolationmode none
attr source packetSentToUpper
attr title "packets passed to higher layer, vector(packetBytes)"
vector 209 DynamicTest.R1.eth[0].encap decapPk:vector(packetBytes) ETV
attr interpolationmode none
attr source decapPk
attr title "packets decapsulated, vector(packetBytes)"
vector 210 DynamicTest.R2.eth[0].encap decapPk:vector(packetBytes) ETV
attr interpolationmode none
attr source decapPk
attr title "packets decapsulated, vector(packetBytes)"
vector 211 DynamicTest.RD.ipv4.arp arpRequestSent:vector(packetBytes) ETV
attr source arpRequestSent
attr title "ARP request sent, vector(packetBytes)"
vector 212 DynamicTest.H2.udp packetReceived:vector(packetBytes) ETV
attr interpolationmode none
attr source packetReceived
attr title "packets received, vector(packetBytes)"
vector 213 DynamicTest.H2.udp passedUpPk:vector(count) ETV
attr interpolationmode none
attr source packetSentToUpper
attr title "packets passed up, vector(count)"
vector 214 DynamicTest.H1.udp packetReceived:vector(packetBytes) ETV
attr interpolationmode none
attr source packetReceived
attr title "packets received, vector(packetBytes)"
vector 215 DynamicTest.H1.udp passedUpPk:vector(count) ETV
attr interpolationmode none
attr source packetSentToUpper
attr title "packets passed up, vector(count)"
vector 216 DynamicTest.H2.app[1] echoedPk:vector(packetBytes) ETV
attr interpolationmode none
attr source packetSent
attr title "packets echoed, vector(packetBytes)"
vector 217 DynamicTest.H1.app[1] echoedPk:vector(packetBytes) ETV
attr interpolationmode none
attr source packetSent
attr title "packets echoed, vector(packetBytes)"
vector 218 DynamicTest.H1.app[0] packetReceived:vector(packetBytes) ETV
attr interpolationmode none
attr source packetReceived
attr title "packets received, vector(packetBytes)"
vector 219 DynamicTest.H1.app[0] throughput:vector ETV
attr source throughput(packetReceived)
attr title "throughput, vector"
attr unit bps
vector 220 DynamicTest.H1.app[0] rcvdPkLifetime:vector ETV
attr interpolationmode none
attr source dataAge(packetReceived)
attr title "received packet lifetime, vector"
attr unit s
vector 221 DynamicTest.H2.app[0] packetReceived:vector(packetBytes) ETV
attr interpolationmode none
attr source packetReceived
attr title "packets received, vector(packetBytes)"
vector 222 DynamicTest.H2.app[0] throughput:vector ETV
attr source throughput(packetReceived)
attr title "throughput, vector"
attr unit bps
vector 223 DynamicTest.H2.app[0] rcvdPkLifetime:vector ETV
attr interpolationmode none
attr source dataAge(packetReceived)
attr title "received packet lifetime, vector"
attr unit s
vector 224 DynamicTest.H1.app[2] packetReceived:vector(packetBytes) ETV
attr interpolationmode none
attr source packetReceived
attr title "packets received, vector(packetBytes)"
vector 225 DynamicTest.H1.app[2] throughput:vector ETV
attr source throughput(packetReceived)
attr title "throughput, vector"
attr unit bps
vector 226 DynamicTest.H1.app[2] rcvdPkLifetime:vector ETV
attr interpolationmode none
attr source dataAge(packetReceived)
attr title "received packet lifetime, vector"
attr unit s
vector 227 DynamicTest.H2.app[2] packetReceived:vector(packetBytes) ETV
attr interpolationmode none
attr source packetReceived
attr title "packets received, vector(packetBytes)"
vector 228 DynamicTest.H2.app[2] throughput:vector ETV
attr source throughput(packetReceived)
attr title "throughput, vector"
attr unit bps
vector 229 DynamicTest.H2.app[2] rcvdPkLifetime:vector ETV
attr interpolationmode none
attr source dataAge(packetReceived)
attr title "received packet lifetime, vector"
attr unit s
vector 230 DynamicTest.H1.app[4] packetReceived:vector(packetBytes) ETV
attr interpolationmode none
attr source packetReceived
attr title "packets received, vector(packetBytes)"
vector 231 DynamicTest.H1.app[4] throughput:vector ETV
attr source throughput(packetReceived)
attr title "throughput, vector"
attr unit bps
vector 232 DynamicTest.H1.app[4] rcvdPkLifetime:vector ETV
attr interpolationmode none
attr source dataAge(packetReceived)
attr title "received packet lifetime, vector"
attr unit s
vector 233 DynamicTest.H2.app[4] packetReceived:vector(packetBytes) ETV
attr interpolationmode none
attr source packetReceived
attr title "packets received, vector(packetBytes)"
vector 234 DynamicTest.H2.app[4] throughput:vector ETV
attr source throughput(packetReceived)
attr title "throughput, vector"
attr unit bps
vector 235 DynamicTest.H2.app[4] rcvdPkLifetime:vector ETV
attr interpolationmode none
attr source dataAge(packetReceived)
attr title "received packet lifetime, vector"
attr unit s
vector 236 DynamicTest.H1.app[3] packetReceived:vector(packetBytes) ETV
attr interpolationmode none
attr source packetReceived
attr title "packets received, vector(packetBytes)"
vector 237 DynamicTest.H1.app[3] throughput:vector ETV
attr source throughput(packetReceived)
attr title "throughput, vector"
attr unit bps
vector 238 DynamicTest.H1.app[3] rcvdPkLifetime:vector ETV
attr interpolationmode none
attr source dataAge(packetReceived)
attr title "received packet lifetime, vector"
attr unit s
vector 239 DynamicTest.H2.app[3] packetReceived:vector(packetBytes) ETV
attr interpolationmode none
attr source packetReceived
attr title "packets received, vector(packetBytes)"
vector 240 DynamicTest.H2.app[3] throughput:vector ETV
attr source throughput(packetReceived)
attr title "throughput, vector"
attr unit bps
vector 241 DynamicTest.H2.app[3] rcvdPkLifetime:vector ETV
attr interpolationmode none
attr source dataAge(packetReceived)
attr title "received packet lifetime, vector"
attr unit s
0	9	0.072648761897	64
0	536	0.105641951586	52
0	554	0.105654631586	72
0	576	0.105670511586	52
0	577	0.105670511586	56
0	593	0.105678031586	72
0	611	0.105692311586	96
0	2233	1.072648761897	68
0	2549	2.072648761897	68
0	2865	3.072648761897	68
0	3184	4.072648761897	68
0	3520	5.072648761897	68
0	4427	5.105692311586	28
0	4446	5.105699031586	88
0	4447	5.105699031586	28
0	4510	5.105733751586	64
0	4511	5.105733751586	64
0	4512	5.105733751586	64
0	4513	5.105733751586	64
0	4514	5.105733751586	64
0	4515	5.105733751586	64
0	4516	5.105733751586	64
0	5564	6	224
0	5710	6.072648761897	68
0	6026	7.072648761897	68
0	6342	8.072648761897	68
0	6658	9.072648761897	68
0	6974	10.072648761897	68
0	7482	11.072648761897	68
0	7798	12.072648761897	68
0	8114	13.072648761897	68
0	8430	14.072648761897	68
0	8746	15.072648761897	68
0	9062	16.072648761897	68
0	9378	17.072648761897	68
0	9694	18.072648761897	68
0	10010	19.072648761897	68
0	10326	20.072648761897	68
0	10642	21.072648761897	68
0	10958	22.072648761897	68
0	11274	23.072648761897	68
0	11590	24.072648761897	68
0	11906	25.072648761897	68
0	12222	26.072648761897	68
0	12538	27.072648761897	68
0	12854	28.072648761897	68
0	13170	29.072648761897	68
0	13486	30.072648761897	68
0	13802	31.072648761897	68
0	14118	32.072648761897	68
0	14434	33.072648761897	68
0	14750	34.072648761897	68
0	15066	35.072648761897	68
0	15382	36.072648761897	68
0	15698	37.072648761897	68
0	16014	38.072648761897	68
0	16330	39.072648761897	68
0	16646	40.072648761897	68
0	16962	41.072648761897	68
0	17278	42.072648761897	68
0	17594	43.072648761897	68
0	17910	44.072648761897	68
0	18226	45.072648761897	68
0	18542	46.072648761897	68
0	18858	47.072648761897	68
0	19174	48.072648761897	68
0	19490	49.072648761897	68
0	19806	50.072648761897	68
0	20122	51.072648761897	68
0	20438	52.072648761897	68
0	20754	53.072648761897	68
0	21070	54.072648761897	68
0	21386	55.072648761897	68
0	21702	56.072648761897	68
0	22018	57.072648761897	68
0	22334	58.072648761897	68
0	22650	59.072648761897	68
0	22966	60.072648761897	68
0	23282	61.072648761897	68
0	23598	62.072648761897	68
0	23914	63.072648761897	68
0	24230	64.072648761897	68
0	24546	65.072648761897	68
0	24862	66.072648761897	68
0	25178	67.072648761897	68
0	25494	68.072648761897	68
0	25810	69.072648761897	68
0	26126	70.072648761897	68
0	26442	71.072648761897	68
0	26758	72.072648761897	68
0	27074	73.072648761897	68
0	27390	74.072648761897	68
0	27706	75.072648761897	68
0	28022	76.072648761897	68
0	28338	77.072648761897	68
0	28654	78.072648761897	68
0	28970	79.072648761897	68
0	29286	80.072648761897	68
0	29602	81.072648761897	68
0	29918	82.072648761897	68
0	30234	83.072648761897	68
0	30550	84.072648761897	68
0	30866	85.072648761897	68
0	31182	86.072648761897	68
0	31498	87.072648761897	68
0	31814	88.072648761897	68
0	32130	89.072648761897	68
0	32446	90.072648761897	68
0	32762	91.072648761897	68
0	33078	92.072648761897	68
0	33394	93.072648761897	68
0	33710	94.072648761897	68
0	34026	95.072648761897	68
0	34342	96.072648761897	68
0	34658	97.072648761897	68
0	34974	98.072648761897	68
0	35290	99.072648761897	68
1	10	0.072648761897	82
1	537	0.105641951586	70
1	555	0.105654631586	90
1	578	0.105670511586	70
1	579	0.105670511586	74
1	594	0.105678031586	90
1	612	0.105692311586	114
1	2234	1.072648761897	86
1	2550	2.072648761897	86
1	2866	3.072648761897	86
1	3185	4.072648761897	86
1	3521	5.072648761897	86
1	4428	5.105692311586	64
1	4448	5.105699031586	106
1	4449	5.105699031586	64
1	4517	5.105733751586	82
1	4518	5.105733751586	82
1	4519	5.105733751586	82
1	4520	5.105733751586	82
1	4521	5.105733751586	82
1	4522	5.105733751586	82
1	4523	5.105733751586	82
1	5584	6	242
1	5711	6.072648761897	86
1	6027	7.072648761897	86
1	6343	8.072648761897	86
1	6659	9.072648761897	86
1	6975	10.072648761897	86
1	7483	11.072648761897	86
1	7799	12.072648761897	86
1	8115	13.072648761897	86
1	8431	14.072648761897	86
1	8747	15.072648761897	86
1	9063	16.072648761897	86
1	9379	17.072648761897	86
1	9695	18.072648761897	86
1	10011	19.072648761897	86
1	10327	20.072648761897	86
1	10643	21.072648761897	86
1	10959	22.072648761897	86
1	11275	23.072648761897	86
1	11591	24.072648761897	86
1	11907	25.072648761897	86
1	12223	26.072648761897	86
1	12539	27.072648761897	86
1	12855	28.072648761897	86
1	13171	29.072648761897	86
1	13487	30.072648761897	86
1	13803	31.072648761897	86
1	14119	32.072648761897	86
1	14435	33.072648761897	86
1	14751	34.072648761897	86
1	15067	35.072648761897	86
1	15383	36.072648761897	86
1	15699	37.072648761897	86
1	16015	38.072648761897	86
1	16331	39.072648761897	86
1	16647	40.072648761897	86
1	16963	41.072648761897	86
1	17279	42.072648761897	86
1	17595	43.072648761897	86
1	17911	44.072648761897	86
1	18227	45.072648761897	86
1	18543	46.072648761897	86
1	18859	47.072648761897	86
1	19175	48.072648761897	86
1	19491	49.072648761897	86
1	19807	50.072648761897	86
1	20123	51.072648761897	86
1	20439	52.072648761897	86
1	20755	53.072648761897	86
1	21071	54.072648761897	86
1	21387	55.072648761897	86
1	21703	56.072648761897	86
1	22019	57.072648761897	86
1	22335	58.072648761897	86
1	22651	59.072648761897	86
1	22967	60.072648761897	86
1	23283	61.072648761897	86
1	23599	62.072648761897	86
1	23915	63.072648761897	86
1	24231	64.072648761897	86
1	24547	65.072648761897	86
1	24863	66.072648761897	86
1	25179	67.072648761897	86
1	25495	68.072648761897	86
1	25811	69.072648761897	86
1	26127	70.072648761897	86
1	26443	71.072648761897	86
1	26759	72.072648761897	86
1	27075	73.072648761897	86
1	27391	74.072648761897	86
1	27707	75.072648761897	86
1	28023	76.072648761897	86
1	28339	77.072648761897	86
1	28655	78.072648761897	86
1	28971	79.072648761897	86
1	29287	80.072648761897	86
1	29603	81.072648761897	86
1	29919	82.072648761897	86
1	30235	83.072648761897	86
1	30551	84.072648761897	86
1	30867	85.072648761897	86
1	31183	86.072648761897	86
1	31499	87.072648761897	86
1	31815	88.072648761897	86
1	32131	89.072648761897	86
1	32447	90.072648761897	86
1	32763	91.072648761897	86
1	33079	92.072648761897	86
1	33395	93.072648761897	86
1	33711	94.072648761897	86
1	34027	95.072648761897	86
1	34343	96.072648761897	86
1	34659	97.072648761897	86
1	34975	98.072648761897	86
1	35291	99.072648761897	86
2	11	0.072655961897	82
2	539	0.105648191586	70
2	557	0.105662471586	90
2	581	0.105676751586	70
2	596	0.105684271586	74
2	613	0.105693071586	90
2	628	0.105703791586	114
2	2235	1.072656281897	86
2	2551	2.072656281897	86
2	2867	3.072656281897	86
2	3186	4.072656281897	86
2	3522	5.072656281897	86
2	4433	5.105698071586	64
2	4451	5.105708151586	106
2	4460	5.105714871586	64
2	4556	5.105740951586	82
2	4587	5.105749111586	82
2	4593	5.105757271586	82
2	4613	5.105765431586	82
2	4626	5.105773591586	82
2	4632	5.105781751586	82
2	4638	5.105789911586	82
2	5691	6.00002	242
2	5712	6.072656281897	86
2	6028	7.072656281897	86
2	6344	8.072656281897	86
2	6660	9.072656281897	86
2	6976	10.072656281897	86
2	7484	11.072656281897	86
2	7800	12.072656281897	86
2	8116	13.072656281897	86
2	8432	14.072656281897	86
2	8748	15.072656281897	86
2	9064	16.072656281897	86
2	9380	17.072656281897	86
2	9696	18.072656281897	86
2	10012	19.072656281897	86
2	10328	20.072656281897	86
2	10644	21.072656281897	86
2	10960	22.072656281897	86
2	11276	23.072656281897	86
2	11592	24.072656281897	86
2	11908	25.072656281897	86
2	12224	26.072656281897	86
2	12540	27.072656281897	86
2	12856	28.072656281897	86
2	13172	29.072656281897	86
2	13488	30.072656281897	86
2	13804	31.072656281897	86
2	14120	32.072656281897	86
2	14436	33.072656281897	86
2	14752	34.072656281897	86
2	15068	35.072656281897	86
2	15384	36.072656281897	86
2	15700	37.072656281897	86
2	16016	38.072656281897	86
2	16332	39.072656281897	86
2	16648	40.072656281897	86
2	16964	41.072656281897	86
2	17280	42.072656281897	86
2	17596	43.072656281897	86
2	17912	44.072656281897	86
2	18228	45.072656281897	86
2	18544	46.072656281897	86
2	18860	47.072656281897	86
2	19176	48.072656281897	86
2	19492	49.072656281897	86
2	19808	50.072656281897	86
2	20124	51.072656281897	86
2	20440	52.072656281897	86
2	20756	53.072656281897	86
2	21072	54.072656281897	86
2	21388	55.072656281897	86
2	21704	56.072656281897	86
2	22020	57.072656281897	86
2	22336	58.072656281897	86
2	22652	59.072656281897	86
2	22968	60.072656281897	86
2	23284	61.072656281897	86
2	23600	62.072656281897	86
2	23916	63.072656281897	86
2	24232	64.072656281897	86
2	24548	65.072656281897	86
2	24864	66.072656281897	86
2	25180	67.072656281897	86
2	25496	68.072656281897	86
2	25812	69.072656281897	86
2	26128	70.072656281897	86
2	26444	71.072656281897	86
2	26760	72.072656281897	86
2	27076	73.072656281897	86
2	27392	74.072656281897	86
2	27708	75.072656281897	86
2	28024	76.072656281897	86
2	28340	77.072656281897	86
2	28656	78.072656281897	86
2	28972	79.072656281897	86
2	29288	80.072656281897	86
2	29604	81.072656281897	86
2	29920	82.072656281897	86
2	30236	83.072656281897	86
2	30552	84.072656281897	86
2	30868	85.072656281897	86
2	31184	86.072656281897	86
2	31500	87.072656281897	86
2	31816	88.072656281897	86
2	32132	89.072656281897	86
2	32448	90.072656281897	86
2	32764	91.072656281897	86
2	33080	92.072656281897	86
2	33396	93.072656281897	86
2	33712	94.072656281897	86
2	34028	95.072656281897	86
2	34344	96.072656281897	86
2	34660	97.072656281897	86
2	34976	98.072656281897	86
2	35292	99.072656281897	86
3	12	0.072656061897	82
3	540	0.105648291586	70
3	558	0.105662571586	90
3	582	0.105676851586	70
3	597	0.105684371586	74
3	614	0.105693171586	90
3	629	0.105703891586	114
3	2236	1.072656381897	86
3	2552	2.072656381897	86
3	2868	3.072656381897	86
3	3187	4.072656381897	86
3	3523	5.072656381897	86
3	4434	5.105698171586	64
3	4452	5.105708251586	106
3	4461	5.105714971586	64
3	4557	5.105741051586	82
3	4588	5.105749211586	82
3	4594	5.105757371586	82
3	4614	5.105765531586	82
3	4627	5.105773691586	82
3	4633	5.105781851586	82
3	4639	5.105790011586	82
3	5694	6.0000201	242
3	5713	6.072656381897	86
3	6029	7.072656381897	86
3	6345	8.072656381897	86
3	6661	9.072656381897	86
3	6977	10.072656381897	86
3	7485	11.072656381897	86
3	7801	12.072656381897	86
3	8117	13.072656381897	86
3	8433	14.072656381897	86
3	8749	15.072656381897	86
3	9065	16.072656381897	86
3	9381	17.072656381897	86
3	9697	18.072656381897	86
3	10013	19.072656381897	86
3	10329	20.072656381897	86
3	10645	21.072656381897	86
3	10961	22.072656381897	86
3	11277	23.072656381897	86
3	11593	24.072656381897	86
3	11909	25.072656381897	86
3	12225	26.072656381897	86
3	12541	27.072656381897	86
3	12857	28.072656381897	86
3	13173	29.072656381897	86
3	13489	30.072656381897	86
3	13805	31.072656381897	86
3	14121	32.072656381897	86
3	14437	33.072656381897	86
3	14753	34.072656381897	86
3	15069	35.072656381897	86
3	15385	36.072656381897	86
3	15701	37.072656381897	86
3	16017	38.072656381897	86
3	16333	39.072656381897	86
3	16649	40.072656381897	86
3	16965	41.072656381897	86
3	17281	42.072656381897	86
3	17597	43.072656381897	86
3	17913	44.072656381897	86
3	18229	45.072656381897	86
3	18545	46.072656381897	86
3	18861	47.072656381897	86
3	19177	48.072656381897	86
3	19493	49.072656381897	86
3	19809	50.072656381897	86
3	20125	51.072656381897	86
3	20441	52.072656381897	86
3	20757	53.072656381897	86
3	21073	54.072656381897	86
3	21389	55.072656381897	86
3	21705	56.072656381897	86
3	22021	57.072656381897	86
3	22337	58.072656381897	86
3	22653	59.072656381897	86
3	22969	60.072656381897	86
3	23285	61.072656381897	86
3	23601	62.072656381897	86
3	23917	63.072656381897	86
3	24233	64.072656381897	86
3	24549	65.072656381897	86
3	24865	66.072656381897	86
3	25181	67.072656381897	86
3	25497	68.072656381897	86
3	25813	69.072656381897	86
3	26129	70.072656381897	86
3	26445	71.072656381897	86
3	26761	72.072656381897	86
3	27077	73.072656381897	86
3	27393	74.072656381897	86
3	27709	75.072656381897	86
3	28025	76.072656381897	86
3	28341	77.072656381897	86
3	28657	78.072656381897	86
3	28973	79.072656381897	86
3	29289	80.072656381897	86
3	29605	81.072656381897	86
3	29921	82.072656381897	86
3	30237	83.072656381897	86
3	30553	84.072656381897	86
3	30869	85.072656381897	86
3	31185	86.072656381897	86
3	31501	87.072656381897	86
3	31817	88.072656381897	86
3	32133	89.072656381897	86
3	32449	90.072656381897	86
3	32765	91.072656381897	86
3	33081	92.072656381897	86
3	33397	93.072656381897	86
3	33713	94.072656381897	86
3	34029	95.072656381897	86
3	34345	96.072656381897	86
3	34661	97.072656381897	86
3	34977	98.072656381897	86
3	35293	99.072656381897	86
4	12	0.072656061897	82
4	540	0.105648291586	70
4	558	0.105662571586	90
4	582	0.105676851586	70
4	597	0.105684371586	74
4	614	0.105693171586	90
4	629	0.105703891586	114
4	2236	1.072656381897	86
4	2552	2.072656381897	86
4	2868	3.072656381897	86
4	3187	4.072656381897	86
4	3523	5.072656381897	86
4	4434	5.105698171586	64
4	4452	5.105708251586	106
4	4461	5.105714971586	64
4	4557	5.105741051586	82
4	4588	5.105749211586	82
4	4594	5.105757371586	82
4	4614	5.105765531586	82
4	4627	5.105773691586	82
4	4633	5.105781851586	82
4	4639	5.105790011586	82
4	5694	6.0000201	242
4	5713	6.072656381897	86
4	6029	7.072656381897	86
4	6345	8.072656381897	86
4	6661	9.072656381897	86
4	6977	10.072656381897	86
4	7485	11.072656381897	86
4	7801	12.072656381897	86
4	8117	13.072656381897	86
4	8433	14.072656381897	86
4	8749	15.072656381897	86
4	9065	16.072656381897	86
4	9381	17.072656381897	86
4	9697	18.072656381897	86
4	10013	19.072656381897	86
4	10329	20.072656381897	86
4	10645	21.072656381897	86
4	10961	22.072656381897	86
4	11277	23.072656381897	86
4	11593	24.072656381897	86
4	11909	25.072656381897	86
4	12225	26.072656381897	86
4	12541	27.072656381897	86
4	12857	28.072656381897	86
4	13173	29.072656381897	86
4	13489	30.072656381897	86
4	13805	31.072656381897	86
4	14121	32.072656381897	86
4	14437	33.072656381897	86
4	14753	34.072656381897	86
4	15069	35.072656381897	86
4	15385	36.072656381897	86
4	15701	37.072656381897	86
4	16017	38.072656381897	86
4	16333	39.072656381897	86
4	16649	40.072656381897	86
4	16965	41.072656381897	86
4	17281	42.072656381897	86
4	17597	43.072656381897	86
4	17913	44.072656381897	86
4	18229	45.072656381897	86
4	18545	46.072656381897	86
4	18861	47.072656381897	86
4	19177	48.072656381897	86
4	19493	49.072656381897	86
4	19809	50.072656381897	86
4	20125	51.072656381897	86
4	20441	52.072656381897	86
4	20757	53.072656381897	86
4	21073	54.072656381897	86
4	21389	55.072656381897	86
4	21705	56.072656381897	86
4	22021	57.072656381897	86
4	22337	58.072656381897	86
4	22653	59.072656381897	86
4	22969	60.072656381897	86
4	23285	61.072656381897	86
4	23601	62.072656381897	86
4	23917	63.072656381897	86
4	24233	64.072656381897	86
4	24549	65.072656381897	86
4	24865	66.072656381897	86
4	25181	67.072656381897	86
4	25497	68.072656381897	86
4	25813	69.072656381897	86
4	26129	70.072656381897	86
4	26445	71.072656381897	86
4	26761	72.072656381897	86
4	27077	73.072656381897	86
4	27393	74.072656381897	86
4	27709	75.072656381897	86
4	28025	76.072656381897	86
4	28341	77.072656381897	86
4	28657	78.072656381897	86
4	28973	79.072656381897	86
4	29289	80.072656381897	86
4	29605	81.072656381897	86
4	29921	82.072656381897	86
4	30237	83.072656381897	86
4	30553	84.072656381897	86
4	30869	85.072656381897	86
4	31185	86.072656381897	86
4	31501	87.072656381897	86
4	31817	88.072656381897	86
4	32133	89.072656381897	86
4	32449	90.072656381897	86
4	32765	91.072656381897	86
4	33081	92.072656381897	86
4	33397	93.072656381897	86
4	33713	94.072656381897	86
4	34029	95.072656381897	86
4	34345	96.072656381897	86
4	34661	97.072656381897	86
4	34977	98.072656381897	86
4	35293	99.072656381897	86
5	13	0.072656061897	64
5	541	0.105648291586	52
5	559	0.105662571586	72
5	583	0.105676851586	52
5	598	0.105684371586	56
5	616	0.105693171586	72
5	631	0.105703891586	96
5	2237	1.072656381897	68
5	2553	2.072656381897	68
5	2869	3.072656381897	68
5	3188	4.072656381897	68
5	3524	5.072656381897	68
5	4435	5.105698171586	46
5	4453	5.105708251586	88
5	4462	5.105714971586	46
5	4558	5.105741051586	64
5	4589	5.105749211586	64
5	4595	5.105757371586	64
5	4615	5.105765531586	64
5	4628	5.105773691586	64
5	4634	5.105781851586	64
5	4640	5.105790011586	64
5	5697	6.0000201	224
5	5714	6.072656381897	68
5	6030	7.072656381897	68
5	6346	8.072656381897	68
5	6662	9.072656381897	68
5	6978	10.072656381897	68
5	7486	11.072656381897	68
5	7802	12.072656381897	68
5	8118	13.072656381897	68
5	8434	14.072656381897	68
5	8750	15.072656381897	68
5	9066	16.072656381897	68
5	9382	17.072656381897	68
5	9698	18.072656381897	68
5	10014	19.072656381897	68
5	10330	20.072656381897	68
5	10646	21.072656381897	68
5	10962	22.072656381897	68
5	11278	23.072656381897	68
5	11594	24.072656381897	68
5	11910	25.072656381897	68
5	12226	26.072656381897	68
5	12542	27.072656381897	68
5	12858	28.072656381897	68
5	13174	29.072656381897	68
5	13490	30.072656381897	68
5	13806	31.072656381897	68
5	14122	32.072656381897	68
5	14438	33.072656381897	68
5	14754	34.072656381897	68
5	15070	35.072656381897	68
5	15386	36.072656381897	68
5	15702	37.072656381897	68
5	16018	38.072656381897	68
5	16334	39.072656381897	68
5	16650	40.072656381897	68
5	16966	41.072656381897	68
5	17282	42.072656381897	68
5	17598	43.072656381897	68
5	17914	44.072656381897	68
5	18230	45.072656381897	68
5	18546	46.072656381897	68
5	18862	47.072656381897	68
5	19178	48.072656381897	68
5	19494	49.072656381897	68
5	19810	50.072656381897	68
5	20126	51.072656381897	68
5	20442	52.072656381897	68
5	20758	53.072656381897	68
5	21074	54.072656381897	68
5	21390	55.072656381897	68
5	21706	56.072656381897	68
5	22022	57.072656381897	68
5	22338	58.072656381897	68
5	22654	59.072656381897	68
5	22970	60.072656381897	68
5	23286	61.072656381897	68
5	23602	62.072656381897	68
5	23918	63.072656381897	68
5	24234	64.072656381897	68
5	24550	65.072656381897	68
5	24866	66.072656381897	68
5	25182	67.072656381897	68
5	25498	68.072656381897	68
5	25814	69.072656381897	68
5	26130	70.072656381897	68
5	26446	71.072656381897	68
5	26762	72.072656381897	68
5	27078	73.072656381897	68
5	27394	74.072656381897	68
5	27710	75.072656381897	68
5	28026	76.072656381897	68
5	28342	77.072656381897	68
5	28658	78.072656381897	68
5	28974	79.072656381897	68
5	29290	80.072656381897	68
5	29606	81.072656381897	68
5	29922	82.072656381897	68
5	30238	83.072656381897	68
5	30554	84.072656381897	68
5	30870	85.072656381897	68
5	31186	86.072656381897	68
5	31502	87.072656381897	68
5	31818	88.072656381897	68
5	32134	89.072656381897	68
5	32450	90.072656381897	68
5	32766	91.072656381897	68
5	33082	92.072656381897	68
5	33398	93.072656381897	68
5	33714	94.072656381897	68
5	34030	95.072656381897	68
5	34346	96.072656381897	68
5	34662	97.072656381897	68
5	34978	98.072656381897	68
5	35294	99.072656381897	68
6	19	0.087563445195	64
6	2243	1.087563445195	64
6	2559	2.087563445195	64
6	2875	3.087563445195	64
6	3194	4.087563445195	64
6	3530	5.087563445195	64
6	5720	6.087563445195	64
6	6036	7.087563445195	64
6	6352	8.087563445195	64
6	6668	9.087563445195	64
6	6984	10.087563445195	64
6	7492	11.087563445195	64
6	7808	12.087563445195	64
6	8124	13.087563445195	64
6	8440	14.087563445195	64
6	8756	15.087563445195	64
6	9072	16.087563445195	64
6	9388	17.087563445195	64
6	9704	18.087563445195	64
6	10020	19.087563445195	64
6	10336	20.087563445195	64
6	10652	21.087563445195	64
6	10968	22.087563445195	64
6	11284	23.087563445195	64
6	11600	24.087563445195	64
6	11916	25.087563445195	64
6	12232	26.087563445195	64
6	12548	27.087563445195	64
6	12864	28.087563445195	64
6	13180	29.087563445195	64
6	13496	30.087563445195	64
6	13812	31.087563445195	64
6	14128	32.087563445195	64
6	14444	33.087563445195	64
6	14760	34.087563445195	64
6	15076	35.087563445195	64
6	15392	36.087563445195	64
6	15708	37.087563445195	64
6	16024	38.087563445195	64
6	16340	39.087563445195	64
6	16656	40.087563445195	64
6	16972	41.087563445195	64
6	17288	42.087563445195	64
6	17604	43.087563445195	64
6	17920	44.087563445195	64
6	18236	45.087563445195	64
6	18552	46.087563445195	64
6	18868	47.087563445195	64
6	19184	48.087563445195	64
6	19500	49.087563445195	64
6	19816	50.087563445195	64
6	20132	51.087563445195	64
6	20448	52.087563445195	64
6	20764	53.087563445195	64
6	21080	54.087563445195	64
6	21396	55.087563445195	64
6	21712	56.087563445195	64
6	22028	57.087563445195	64
6	22344	58.087563445195	64
6	22660	59.087563445195	64
6	22976	60.087563445195	64
6	23292	61.087563445195	64
6	23608	62.087563445195	64
6	23924	63.087563445195	64
6	24240	64.087563445195	64
6	24556	65.087563445195	64
6	24872	66.087563445195	64
6	25188	67.087563445195	64
6	25504	68.087563445195	64
6	25820	69.087563445195	64
6	26136	70.087563445195	64
6	26452	71.087563445195	64
6	26768	72.087563445195	64
6	27084	73.087563445195	64
6	27400	74.087563445195	64
6	27716	75.087563445195	64
6	28032	76.087563445195	64
6	28348	77.087563445195	64
6	28664	78.087563445195	64
6	28980	79.087563445195	64
6	29296	80.087563445195	64
6	29612	81.087563445195	64
6	29928	82.087563445195	64
6	30244	83.087563445195	64
6	30560	84.087563445195	64
6	30876	85.087563445195	64
6	31192	86.087563445195	64
6	31508	87.087563445195	64
6	31824	88.087563445195	64
6	32140	89.087563445195	64
6	32456	90.087563445195	64
6	32772	91.087563445195	64
6	33088	92.087563445195	64
6	33404	93.087563445195	64
6	33720	94.087563445195	64
6	34036	95.087563445195	64
6	34352	96.087563445195	64
6	34668	97.087563445195	64
6	34984	98.087563445195	64
6	35300	99.087563445195	64
7	20	0.087563445195	82
7	2244	1.087563445195	82
7	2560	2.087563445195	82
7	2876	3.087563445195	82
7	3195	4.087563445195	82
7	3531	5.087563445195	82
7	5721	6.087563445195	82
7	6037	7.087563445195	82
7	6353	8.087563445195	82
7	6669	9.087563445195	82
7	6985	10.087563445195	82
7	7493	11.087563445195	82
7	7809	12.087563445195	82
7	8125	13.087563445195	82
7	8441	14.087563445195	82
7	8757	15.087563445195	82
7	9073	16.087563445195	82
7	9389	17.087563445195	82
7	9705	18.087563445195	82
7	10021	19.087563445195	82
7	10337	20.087563445195	82
7	10653	21.087563445195	82
7	10969	22.087563445195	82
7	11285	23.087563445195	82
7	11601	24.087563445195	82
7	11917	25.087563445195	82
7	12233	26.087563445195	82
7	12549	27.087563445195	82
7	12865	28.087563445195	82
7	13181	29.087563445195	82
7	13497	30.087563445195	82
7	13813	31.087563445195	82
7	14129	32.087563445195	82
7	14445	33.087563445195	82
7	14761	34.087563445195	82
7	15077	35.087563445195	82
7	15393	36.087563445195	82
7	15709	37.087563445195	82
7	16025	38.087563445195	82
7	16341	39.087563445195	82
7	16657	40.087563445195	82
7	16973	41.087563445195	82
7	17289	42.087563445195	82
7	17605	43.087563445195	82
7	17921	44.087563445195	82
7	18237	45.087563445195	82
7	18553	46.087563445195	82
7	18869	47.087563445195	82
7	19185	48.087563445195	82
7	19501	49.087563445195	82
7	19817	50.087563445195	82
7	20133	51.087563445195	82
7	20449	52.087563445195	82
7	20765	53.087563445195	82
7	21081	54.087563445195	82
7	21397	55.087563445195	82
7	21713	56.087563445195	82
7	22029	57.087563445195	82
7	22345	58.087563445195	82
7	22661	59.087563445195	82
7	22977	60.087563445195	82
7	23293	61.087563445195	82
7	23609	62.087563445195	82
7	23925	63.087563445195	82
7	24241	64.087563445195	82
7	24557	65.087563445195	82
7	24873	66.087563445195	82
7	25189	67.087563445195	82
7	25505	68.087563445195	82
7	25821	69.087563445195	82
7	26137	70.087563445195	82
7	26453	71.087563445195	82
7	26769	72.087563445195	82
7	27085	73.087563445195	82
7	27401	74.087563445195	82
7	27717	75.087563445195	82
7	28033	76.087563445195	82
7	28349	77.087563445195	82
7	28665	78.087563445195	82
7	28981	79.087563445195	82
7	29297	80.087563445195	82
7	29613	81.087563445195	82
7	29929	82.087563445195	82
7	30245	83.087563445195	82
7	30561	84.087563445195	82
7	30877	85.087563445195	82
7	31193	86.087563445195	82
7	31509	87.087563445195	82
7	31825	88.087563445195	82
7	32141	89.087563445195	82
7	32457	90.087563445195	82
7	32773	91.087563445195	82
7	33089	92.087563445195	82
7	33405	93.087563445195	82
7	33721	94.087563445195	82
7	34037	95.087563445195	82
7	34353	96.087563445195	82
7	34669	97.087563445195	82
7	34985	98.087563445195	82
7	35301	99.087563445195	82
8	21	0.087570645195	82
8	2245	1.087570645195	82
8	2561	2.087570645195	82
8	2877	3.087570645195	82
8	3196	4.087570645195	82
8	3532	5.087570645195	82
8	5722	6.087570645195	82
8	6038	7.087570645195	82
8	6354	8.087570645195	82
8	6670	9.087570645195	82
8	6986	10.087570645195	82
8	7494	11.087570645195	82
8	7810	12.087570645195	82
8	8126	13.087570645195	82
8	8442	14.087570645195	82
8	8758	15.087570645195	82
8	9074	16.087570645195	82
8	9390	17.087570645195	82
8	9706	18.087570645195	82
8	10022	19.087570645195	82
8	10338	20.087570645195	82
8	10654	21.087570645195	82
8	10970	22.087570645195	82
8	11286	23.087570645195	82
8	11602	24.087570645195	82
8	11918	25.087570645195	82
8	12234	26.087570645195	82
8	12550	27.087570645195	82
8	12866	28.087570645195	82
8	13182	29.087570645195	82
8	13498	30.087570645195	82
8	13814	31.087570645195	82
8	14130	32.087570645195	82
8	14446	33.087570645195	82
8	14762	34.087570645195	82
8	15078	35.087570645195	82
8	15394	36.087570645195	82
8	15710	37.087570645195	82
8	16026	38.087570645195	82
8	16342	39.087570645195	82
8	16658	40.087570645195	82
8	16974	41.087570645195	82
8	17290	42.087570645195	82
8	17606	43.087570645195	82
8	17922	44.087570645195	82
8	18238	45.087570645195	82
8	18554	46.087570645195	82
8	18870	47.087570645195	82
8	19186	48.087570645195	82
8	19502	49.087570645195	82
8	19818	50.087570645195	82
8	20134	51.087570645195	82
8	20450	52.087570645195	82
8	20766	53.087570645195	82
8	21082	54.087570645195	82
8	21398	55.087570645195	82
8	21714	56.087570645195	82
8	22030	57.087570645195	82
8	22346	58.087570645195	82
8	22662	59.087570645195	82
8	22978	60.087570645195	82
8	23294	61.087570645195	82
8	23610	62.087570645195	82
8	23926	63.087570645195	82
8	24242	64.087570645195	82
8	24558	65.087570645195	82
8	24874	66.087570645195	82
8	25190	67.087570645195	82
8	25506	68.087570645195	82
8	25822	69.087570645195	82
8	26138	70.087570645195	82
8	26454	71.087570645195	82
8	26770	72.087570645195	82
8	27086	73.087570645195	82
8	27402	74.087570645195	82
8	27718	75.087570645195	82
8	28034	76.087570645195	82
8	28350	77.087570645195	82
8	28666	78.087570645195	82
8	28982	79.087570645195	82
8	29298	80.087570645195	82
8	29614	81.087570645195	82
8	29930	82.087570645195	82
8	30246	83.087570645195	82
8	30562	84.087570645195	82
8	30878	85.087570645195	82
8	31194	86.087570645195	82
8	31510	87.087570645195	82
8	31826	88.087570645195	82
8	32142	89.087570645195	82
8	32458	90.087570645195	82
8	32774	91.087570645195	82
8	33090	92.087570645195	82
8	33406	93.087570645195	82
8	33722	94.087570645195	82
8	34038	95.087570645195	82
8	34354	96.087570645195	82
8	34670	97.087570645195	82
8	34986	98.087570645195	82
8	35302	99.087570645195	82
9	22	0.087570745195	82
9	2246	1.087570745195	82
9	2562	2.087570745195	82
9	2878	3.087570745195	82
9	3197	4.087570745195	82
9	3533	5.087570745195	82
9	5723	6.087570745195	82
9	6039	7.087570745195	82
9	6355	8.087570745195	82
9	6671	9.087570745195	82
9	6987	10.087570745195	82
9	7495	11.087570745195	82
9	7811	12.087570745195	82
9	8127	13.087570745195	82
9	8443	14.087570745195	82
9	8759	15.087570745195	82
9	9075	16.087570745195	82
9	9391	17.087570745195	82
9	9707	18.087570745195	82
9	10023	19.087570745195	82
9	10339	20.087570745195	82
9	10655	21.087570745195	82
9	10971	22.087570745195	82
9	11287	23.087570745195	82
9	11603	24.087570745195	82
9	11919	25.087570745195	82
9	12235	26.087570745195	82
9	12551	27.087570745195	82
9	12867	28.087570745195	82
9	13183	29.087570745195	82
9	13499	30.087570745195	82
9	13815	31.087570745195	82
9	14131	32.087570745195	82
9	14447	33.087570745195	82
9	14763	34.087570745195	82
9	15079	35.087570745195	82
9	15395	36.087570745195	82
9	15711	37.087570745195	82
9	16027	38.087570745195	82
9	16343	39.087570745195	82
9	16659	40.087570745195	82
9	16975	41.087570745195	82
9	17291	42.087570745195	82
9	17607	43.087570745195	82
9	17923	44.087570745195	82
9	18239	45.087570745195	82
9	18555	46.087570745195	82
9	18871	47.087570745195	82
9	19187	48.087570745195	82
9	19503	49.087570745195	82
9	19819	50.087570745195	82
9	20135	51.087570745195	82
9	20451	52.087570745195	82
9	20767	53.087570745195	82
9	21083	54.087570745195	82
9	21399	55.087570745195	82
9	21715	56.087570745195	82
9	22031	57.087570745195	82
9	22347	58.087570745195	82
9	22663	59.087570745195	82
9	22979	60.087570745195	82
9	23295	61.087570745195	82
9	23611	62.087570745195	82
9	23927	63.087570745195	82
9	24243	64.087570745195	82
9	24559	65.087570745195	82
9	24875	66.087570745195	82
9	25191	67.087570745195	82
9	25507	68.087570745195	82
9	25823	69.087570745195	82
9	26139	70.087570745195	82
9	26455	71.087570745195	82
9	26771	72.087570745195	82
9	27087	73.087570745195	82
9	27403	74.087570745195	82
9	27719	75.087570745195	82
9	28035	76.087570745195	82
9	28351	77.087570745195	82
9	28667	78.087570745195	82
9	28983	79.087570745195	82
9	29299	80.087570745195	82
9	29615	81.087570745195	82
9	29931	82.087570745195	82
9	30247	83.087570745195	82
9	30563	84.087570745195	82
9	30879	85.087570745195	82
9	31195	86.087570745195	82
9	31511	87.087570745195	82
9	31827	88.087570745195	82
9	32143	89.087570745195	82
9	32459	90.087570745195	82
9	32775	91.087570745195	82
9	33091	92.087570745195	82
9	33407	93.087570745195	82
9	33723	94.087570745195	82
9	34039	95.087570745195	82
9	34355	96.087570745195	82
9	34671	97.087570745195	82
9	34987	98.087570745195	82
9	35303	99.087570745195	82
10	22	0.087570745195	82
10	2246	1.087570745195	82
10	2562	2.087570745195	82
10	2878	3.087570745195	82
10	3197	4.087570745195	82
10	3533	5.087570745195	82
10	5723	6.087570745195	82
10	6039	7.087570745195	82
10	6355	8.087570745195	82
10	6671	9.087570745195	82
10	6987	10.087570745195	82
10	7495	11.087570745195	82
10	7811	12.087570745195	82
10	8127	13.087570745195	82
10	8443	14.087570745195	82
10	8759	15.087570745195	82
10	9075	16.087570745195	82
10	9391	17.087570745195	82
10	9707	18.087570745195	82
10	10023	19.087570745195	82
10	10339	20.087570745195	82
10	10655	21.087570745195	82
10	10971	22.087570745195	82
10	11287	23.087570745195	82
10	11603	24.087570745195	82
10	11919	25.087570745195	82
10	12235	26.087570745195	82
10	12551	27.087570745195	82
10	12867	28.087570745195	82
10	13183	29.087570745195	82
10	13499	30.087570745195	82
10	13815	31.087570745195	82
10	14131	32.087570745195	82
10	14447	33.087570745195	82
10	14763	34.087570745195	82
10	15079	35.087570745195	82
10	15395	36.087570745195	82
10	15711	37.087570745195	82
10	16027	38.087570745195	82
10	16343	39.087570745195	82
10	16659	40.087570745195	82
10	16975	41.087570745195	82
10	17291	42.087570745195	82
10	17607	43.087570745195	82
10	17923	44.087570745195	82
10	18239	45.087570745195	82
10	18555	46.087570745195	82
10	18871	47.087570745195	82
10	19187	48.087570745195	82
10	19503	49.087570745195	82
10	19819	50.087570745195	82
10	20135	51.087570745195	82
10	20451	52.087570745195	82
10	20767	53.087570745195	82
10	21083	54.087570745195	82
10	21399	55.087570745195	82
10	21715	56.087570745195	82
10	22031	57.087570745195	82
10	22347	58.087570745195	82
10	22663	59.087570745195	82
10	22979	60.087570745195	82
10	23295	61.087570745195	82
10	23611	62.087570745195	82
10	23927	63.087570745195	82
10	24243	64.087570745195	82
10	24559	65.087570745195	82
10	24875	66.087570745195	82
10	25191	67.087570745195	82
10	25507	68.087570745195	82
10	25823	69.087570745195	82
10	26139	70.087570745195	82
10	26455	71.087570745195	82
10	26771	72.087570745195	82
10	27087	73.087570745195	82
10	27403	74.087570745195	82
10	27719	75.087570745195	82
10	28035	76.087570745195	82
10	28351	77.087570745195	82
10	28667	78.087570745195	82
10	28983	79.087570745195	82
10	29299	80.087570745195	82
10	29615	81.087570745195	82
10	29931	82.087570745195	82
10	30247	83.087570745195	82
10	30563	84.087570745195	82
10	30879	85.087570745195	82
10	31195	86.087570745195	82
10	31511	87.087570745195	82
10	31827	88.087570745195	82
10	32143	89.087570745195	82
10	32459	90.087570745195	82
10	32775	91.087570745195	82
10	33091	92.087570745195	82
10	33407	93.087570745195	82
10	33723	94.087570745195	82
10	34039	95.087570745195	82
10	34355	96.087570745195	82
10	34671	97.087570745195	82
10	34987	98.087570745195	82
10	35303	99.087570745195	82
11	23	0.087570745195	64
11	2247	1.087570745195	64
11	2563	2.087570745195	64
11	2879	3.087570745195	64
11	3198	4.087570745195	64
11	3534	5.087570745195	64
11	5724	6.087570745195	64
11	6040	7.087570745195	64
11	6356	8.087570745195	64
11	6672	9.087570745195	64
11	6988	10.087570745195	64
11	7496	11.087570745195	64
11	7812	12.087570745195	64
11	8128	13.087570745195	64
11	8444	14.087570745195	64
11	8760	15.087570745195	64
11	9076	16.087570745195	64
11	9392	17.087570745195	64
11	9708	18.087570745195	64
11	10024	19.087570745195	64
11	10340	20.087570745195	64
11	10656	21.087570745195	64
11	10972	22.087570745195	64
11	11288	23.087570745195	64
[...]
240	36441	43.7	0
240	36441	43.8	0
240	36441	43.9	0
240	36441	44	0
240	36441	44.1	0
240	36441	44.2	0
240	36441	44.3	0
240	36441	44.4	0
240	36441	44.5	0
240	36441	44.6	0
240	36441	44.7	0
240	36441	44.8	0
240	36441	44.9	0
240	36441	45	0
240	36441	45.1	0
240	36441	45.2	0
240	36441	45.3	0
240	36441	45.4	0
240	36441	45.5	0
240	36441	45.6	0
240	36441	45.7	0
240	36441	45.8	0
240	36441	45.9	0
240	36441	46	0
240	36441	46.1	0
240	36441	46.2	0
240	36441	46.3	0
240	36441	46.4	0
240	36441	46.5	0
240	36441	46.6	0
240	36441	46.7	0
240	36441	46.8	0
240	36441	46.9	0
240	36441	47	0
240	36441	47.1	0
240	36441	47.2	0
240	36441	47.3	0
240	36441	47.4	0
240	36441	47.5	0
240	36441	47.6	0
240	36441	47.7	0
240	36441	47.8	0
240	36441	47.9	0
240	36441	48	0
240	36441	48.1	0
240	36441	48.2	0
240	36441	48.3	0
240	36441	48.4	0
240	36441	48.5	0
240	36441	48.6	0
240	36441	48.7	0
240	36441	48.8	0
240	36441	48.9	0
240	36441	49	0
240	36441	49.1	0
240	36441	49.2	0
240	36441	49.3	0
240	36441	49.4	0
240	36441	49.5	0
240	36441	49.6	0
240	36441	49.7	0
240	36441	49.8	0
240	36441	49.9	0
240	36441	50	0
240	36441	50.1	0
240	36441	50.2	0
240	36441	50.3	0
240	36441	50.4	0
240	36441	50.5	0
240	36441	50.6	0
240	36441	50.7	0
240	36441	50.8	0
240	36441	50.9	0
240	36441	51	0
240	36441	51.1	0
240	36441	51.2	0
240	36441	51.3	0
240	36441	51.4	0
240	36441	51.5	0
240	36441	51.6	0
240	36441	51.7	0
240	36441	51.8	0
240	36441	51.9	0
240	36441	52	0
240	36441	52.1	0
240	36441	52.2	0
240	36441	52.3	0
240	36441	52.4	0
240	36441	52.5	0
240	36441	52.6	0
240	36441	52.7	0
240	36441	52.8	0
240	36441	52.9	0
240	36441	53	0
240	36441	53.1	0
240	36441	53.2	0
240	36441	53.3	0
240	36441	53.4	0
240	36441	53.5	0
240	36441	53.6	0
240	36441	53.7	0
240	36441	53.8	0
240	36441	53.9	0
240	36441	54	0
240	36441	54.1	0
240	36441	54.2	0
240	36441	54.3	0
240	36441	54.4	0
240	36441	54.5	0
240	36441	54.6	0
240	36441	54.7	0
240	36441	54.8	0
240	36441	54.9	0
240	36441	55	0
240	36441	55.1	0
240	36441	55.2	0
240	36441	55.3	0
240	36441	55.4	0
240	36441	55.5	0
240	36441	55.6	0
240	36441	55.7	0
240	36441	55.8	0
240	36441	55.9	0
240	36441	56	0
240	36441	56.1	0
240	36441	56.2	0
240	36441	56.3	0
240	36441	56.4	0
240	36441	56.5	0
240	36441	56.6	0
240	36441	56.7	0
240	36441	56.8	0
240	36441	56.9	0
240	36441	57	0
240	36441	57.1	0
240	36441	57.2	0
240	36441	57.3	0
240	36441	57.4	0
240	36441	57.5	0
240	36441	57.6	0
240	36441	57.7	0
240	36441	57.8	0
240	36441	57.9	0
240	36441	58	0
240	36441	58.1	0
240	36441	58.2	0
240	36441	58.3	0
240	36441	58.4	0
240	36441	58.5	0
240	36441	58.6	0
240	36441	58.7	0
240	36441	58.8	0
240	36441	58.9	0
240	36441	59	0
240	36441	59.1	0
240	36441	59.2	0
240	36441	59.3	0
240	36441	59.4	0
240	36441	59.5	0
240	36441	59.6	0
240	36441	59.7	0
240	36441	59.8	0
240	36441	59.9	0
240	36441	60	0
240	36441	60.1	0
240	36441	60.2	0
240	36441	60.3	0
240	36441	60.4	0
240	36441	60.5	0
240	36441	60.6	0
240	36441	60.7	0
240	36441	60.8	0
240	36441	60.9	0
240	36441	61	0
240	36441	61.1	0
240	36441	61.2	0
240	36441	61.3	0
240	36441	61.4	0
240	36441	61.5	0
240	36441	61.6	0
240	36441	61.7	0
240	36441	61.8	0
240	36441	61.9	0
240	36441	62	0
240	36441	62.1	0
240	36441	62.2	0
240	36441	62.3	0
240	36441	62.4	0
240	36441	62.5	0
240	36441	62.6	0
240	36441	62.7	0
240	36441	62.8	0
240	36441	62.9	0
240	36441	63	0
240	36441	63.1	0
240	36441	63.2	0
240	36441	63.3	0
240	36441	63.4	0
240	36441	63.5	0
240	36441	63.6	0
240	36441	63.7	0
240	36441	63.8	0
240	36441	63.9	0
240	36441	64	0
240	36441	64.1	0
240	36441	64.2	0
240	36441	64.3	0
240	36441	64.4	0
240	36441	64.5	0
240	36441	64.6	0
240	36441	64.7	0
240	36441	64.8	0
240	36441	64.9	0
240	36441	65	0
240	36441	65.1	0
240	36441	65.2	0
240	36441	65.3	0
240	36441	65.4	0
240	36441	65.5	0
240	36441	65.6	0
240	36441	65.7	0
240	36441	65.8	0
240	36441	65.9	0
240	36441	66	0
240	36441	66.1	0
240	36441	66.2	0
240	36441	66.3	0
240	36441	66.4	0
240	36441	66.5	0
240	36441	66.6	0
240	36441	66.7	0
240	36441	66.8	0
240	36441	66.9	0
240	36441	67	0
240	36441	67.1	0
240	36441	67.2	0
240	36441	67.3	0
240	36441	67.4	0
240	36441	67.5	0
240	36441	67.6	0
240	36441	67.7	0
240	36441	67.8	0
240	36441	67.9	0
240	36441	68	0
240	36441	68.1	0
240	36441	68.2	0
240	36441	68.3	0
240	36441	68.4	0
240	36441	68.5	0
240	36441	68.6	0
240	36441	68.7	0
240	36441	68.8	0
240	36441	68.9	0
240	36441	69	0
240	36441	69.1	0
240	36441	69.2	0
240	36441	69.3	0
240	36441	69.4	0
240	36441	69.5	0
240	36441	69.6	0
240	36441	69.7	0
240	36441	69.8	0
240	36441	69.9	0
240	36441	70	0
240	36441	70.1	0
240	36441	70.2	0
240	36441	70.3	0
240	36441	70.4	0
240	36441	70.5	0
240	36441	70.6	0
240	36441	70.7	0
240	36441	70.8	0
240	36441	70.9	0
240	36441	71	0
240	36441	71.1	0
240	36441	71.2	0
240	36441	71.3	0
240	36441	71.4	0
240	36441	71.5	0
240	36441	71.6	0
240	36441	71.7	0
240	36441	71.8	0
240	36441	71.9	0
240	36441	72	0
240	36441	72.1	0
240	36441	72.2	0
240	36441	72.3	0
240	36441	72.4	0
240	36441	72.5	0
240	36441	72.6	0
240	36441	72.7	0
240	36441	72.8	0
240	36441	72.9	0
240	36441	73	0
240	36441	73.1	0
240	36441	73.2	0
240	36441	73.3	0
240	36441	73.4	0
240	36441	73.5	0
240	36441	73.6	0
240	36441	73.7	0
240	36441	73.8	0
240	36441	73.9	0
240	36441	74	0
240	36441	74.1	0
240	36441	74.2	0
240	36441	74.3	0
240	36441	74.4	0
240	36441	74.5	0
240	36441	74.6	0
240	36441	74.7	0
240	36441	74.8	0
240	36441	74.9	0
240	36441	75	0
240	36441	75.1	0
240	36441	75.2	0
240	36441	75.3	0
240	36441	75.4	0
240	36441	75.5	0
240	36441	75.6	0
240	36441	75.7	0
240	36441	75.8	0
240	36441	75.9	0
240	36441	76	0
240	36441	76.1	0
240	36441	76.2	0
240	36441	76.3	0
240	36441	76.4	0
240	36441	76.5	0
240	36441	76.6	0
240	36441	76.7	0
240	36441	76.8	0
240	36441	76.9	0
240	36441	77	0
240	36441	77.1	0
240	36441	77.2	0
240	36441	77.3	0
240	36441	77.4	0
240	36441	77.5	0
240	36441	77.6	0
240	36441	77.7	0
240	36441	77.8	0
240	36441	77.9	0
240	36441	78	0
240	36441	78.1	0
240	36441	78.2	0
240	36441	78.3	0
240	36441	78.4	0
240	36441	78.5	0
240	36441	78.6	0
240	36441	78.7	0
240	36441	78.8	0
240	36441	78.9	0
240	36441	79	0
240	36441	79.1	0
240	36441	79.2	0
240	36441	79.3	0
240	36441	79.4	0
240	36441	79.5	0
240	36441	79.6	0
240	36441	79.7	0
240	36441	79.8	0
240	36441	79.9	0
240	36441	80	0
240	36441	80.1	0
240	36441	80.2	0
240	36441	80.3	0
240	36441	80.4	0
240	36441	80.5	0
240	36441	80.6	0
240	36441	80.7	0
240	36441	80.8	0
240	36441	80.9	0
240	36441	81	0
240	36441	81.1	0
240	36441	81.2	0
240	36441	81.3	0
240	36441	81.4	0
240	36441	81.5	0
240	36441	81.6	0
240	36441	81.7	0
240	36441	81.8	0
240	36441	81.9	0
240	36441	82	0
240	36441	82.1	0
240	36441	82.2	0
240	36441	82.3	0
240	36441	82.4	0
240	36441	82.5	0
240	36441	82.6	0
240	36441	82.7	0
240	36441	82.8	0
240	36441	82.9	0
240	36441	83	0
240	36441	83.1	0
240	36441	83.2	0
240	36441	83.3	0
240	36441	83.4	0
240	36441	83.5	0
240	36441	83.6	0
240	36441	83.7	0
240	36441	83.8	0
240	36441	83.9	0
240	36441	84	0
240	36441	84.1	0
240	36441	84.2	0
240	36441	84.3	0
240	36441	84.4	0
240	36441	84.5	0
240	36441	84.6	0
240	36441	84.7	0
240	36441	84.8	0
240	36441	84.9	0
240	36441	85	0
240	36441	85.1	0
240	36441	85.2	0
240	36441	85.3	0
240	36441	85.4	0
240	36441	85.5	0
240	36441	85.6	0
240	36441	85.7	0
240	36441	85.8	0
240	36441	85.9	0
240	36441	86	0
240	36441	86.1	0
240	36441	86.2	0
240	36441	86.3	0
240	36441	86.4	0
240	36441	86.5	0
240	36441	86.6	0
240	36441	86.7	0
240	36441	86.8	0
240	36441	86.9	0
240	36441	87	0
240	36441	87.1	0
240	36441	87.2	0
240	36441	87.3	0
240	36441	87.4	0
240	36441	87.5	0
240	36441	87.6	0
240	36441	87.7	0
240	36441	87.8	0
240	36441	87.9	0
240	36441	88	0
240	36441	88.1	0
240	36441	88.2	0
240	36441	88.3	0
240	36441	88.4	0
240	36441	88.5	0
240	36441	88.6	0
240	36441	88.7	0
240	36441	88.8	0
240	36441	88.9	0
240	36441	89	0
240	36441	89.1	0
240	36441	89.2	0
240	36441	89.3	0
240	36441	89.4	0
240	36441	89.5	0
240	36441	89.6	0
240	36441	89.7	0
240	36441	89.8	0
240	36441	89.9	0
240	36441	90	0
240	36441	90.1	0
240	36441	90.2	0
240	36441	90.3	0
240	36441	90.4	0
240	36441	90.5	0
240	36441	90.6	0
240	36441	90.7	0
240	36441	90.8	0
240	36441	90.9	0
240	36441	91	0
240	36441	91.1	0
240	36441	91.2	0
240	36441	91.3	0
240	36441	91.4	0
240	36441	91.5	0
240	36441	91.6	0
240	36441	91.7	0
240	36441	91.8	0
240	36441	91.9	0
240	36441	92	0
240	36441	92.1	0
240	36441	92.2	0
240	36441	92.3	0
240	36441	92.4	0
240	36441	92.5	0
240	36441	92.6	0
240	36441	92.7	0
240	36441	92.8	0
240	36441	92.9	0
240	36441	93	0
240	36441	93.1	0
240	36441	93.2	0
240	36441	93.3	0
240	36441	93.4	0
240	36441	93.5	0
240	36441	93.6	0
240	36441	93.7	0
240	36441	93.8	0
240	36441	93.9	0
240	36441	94	0
240	36441	94.1	0
240	36441	94.2	0
240	36441	94.3	0
240	36441	94.4	0
240	36441	94.5	0
240	36441	94.6	0
240	36441	94.7	0
240	36441	94.8	0
240	36441	94.9	0
240	36441	95	0
240	36441	95.1	0
240	36441	95.2	0
240	36441	95.3	0
240	36441	95.4	0
240	36441	95.5	0
240	36441	95.6	0
240	36441	95.7	0
240	36441	95.8	0
240	36441	95.9	0
240	36441	96	0
240	36441	96.1	0
240	36441	96.2	0
240	36441	96.3	0
240	36441	96.4	0
240	36441	96.5	0
240	36441	96.6	0
240	36441	96.7	0
240	36441	96.8	0
240	36441	96.9	0
240	36441	97	0
240	36441	97.1	0
240	36441	97.2	0
240	36441	97.3	0
240	36441	97.4	0
240	36441	97.5	0
240	36441	97.6	0
240	36441	97.7	0
240	36441	97.8	0
240	36441	97.9	0
240	36441	98	0
240	36441	98.1	0
240	36441	98.2	0
240	36441	98.3	0
240	36441	98.4	0
240	36441	98.5	0
240	36441	98.6	0
240	36441	98.7	0
240	36441	98.8	0
240	36441	98.9	0
240	36441	99	0
240	36441	99.1	0
240	36441	99.2	0
240	36441	99.3	0
240	36441	99.4	0
240	36441	99.5	0
240	36441	99.6	0
240	36441	99.7	0
240	36441	99.8	0
240	36441	99.9	0
240	36441	100	0
241	36441	100.00012348	0.00012348
12	46866	100.00672094	60
12	47024	100.00682094	60
12	47182	100.00692094	60
13	46868	100.00672094	78
13	47026	100.00682094	78
13	47184	100.00692094	78
14	46872	100.00672782	78
14	47030	100.00682782	78
15	46874	100.00672792	78
15	47032	100.00682792	78
16	46874	100.00672792	78
16	47032	100.00682792	78
17	46876	100.00672792	60
17	47034	100.00682792	60
30	46800	100.00666282	60
30	46881	100.00672792	60
30	46958	100.00676282	60
30	47039	100.00682792	60
30	47116	100.00686282	60
31	46802	100.00666282	78
31	46883	100.00672792	78
31	46960	100.00676282	78
31	47041	100.00682792	78
31	47118	100.00686282	78
32	46806	100.0066697	78
32	46887	100.0067348	78
32	46964	100.0067697	78
32	47045	100.0068348	78
32	47122	100.0068697	78
33	46808	100.0066698	78
33	46889	100.0067349	78
33	46966	100.0067698	78
33	47047	100.0068349	78
33	47124	100.0068698	78
34	46808	100.0066698	78
34	46889	100.0067349	78
34	46966	100.0067698	78
34	47047	100.0068349	78
34	47124	100.0068698	78
35	46810	100.0066698	60
35	46891	100.0067349	60
35	46968	100.0067698	60
35	47049	100.0068349	60
35	47126	100.0068698	60
42	46773	100.00664886	60
42	46931	100.00674886	60
42	47089	100.00684886	60
43	46775	100.00664886	78
43	46933	100.00674886	78
43	47091	100.00684886	78
44	46779	100.00665574	78
44	46937	100.00675574	78
44	47095	100.00685574	78
45	46781	100.00665584	78
45	46939	100.00675584	78
45	47097	100.00685584	78
46	46781	100.00665584	78
46	46939	100.00675584	78
46	47097	100.00685584	78
47	46783	100.00665584	60
47	46941	100.00675584	60
47	47099	100.00685584	60
54	46852	100.00671396	60
54	47010	100.00681396	60
54	47168	100.00691396	60
55	46854	100.00671396	78
55	47012	100.00681396	78
55	47170	100.00691396	78
56	46858	100.00672084	78
56	47016	100.00682084	78
56	47174	100.00692084	78
57	46860	100.00672094	78
57	47018	100.00682094	78
57	47176	100.00692094	78
58	46860	100.00672094	78
58	47018	100.00682094	78
58	47176	100.00692094	78
59	46862	100.00672094	60
59	47020	100.00682094	60
59	47178	100.00692094	60
66	46786	100.00665584	60
66	46944	100.00675584	60
66	47102	100.00685584	60
67	46788	100.00665584	78
67	46946	100.00675584	78
67	47104	100.00685584	78
68	46792	100.00666272	78
68	46950	100.00676272	78
68	47108	100.00686272	78
69	46794	100.00666282	78
69	46952	100.00676282	78
69	47110	100.00686282	78
70	46794	100.00666282	78
70	46952	100.00676282	78
70	47110	100.00686282	78
71	46796	100.00666282	60
71	46954	100.00676282	60
71	47112	100.00686282	60
78	46801	100.00666282	60
78	46880	100.00672792	60
78	46959	100.00676282	60
78	47038	100.00682792	60
78	47117	100.00686282	60
79	46803	100.00666282	78
79	46882	100.00672792	78
79	46961	100.00676282	78
79	47040	100.00682792	78
79	47119	100.00686282	78
80	46807	100.0066697	78
80	46886	100.0067348	78
80	46965	100.0067697	78
80	47044	100.0068348	78
80	47123	100.0068697	78
81	46809	100.0066698	78
81	46888	100.0067349	78
81	46967	100.0067698	78
81	47046	100.0068349	78
81	47125	100.0068698	78
82	46809	100.0066698	78
82	46888	100.0067349	78
82	46967	100.0067698	78
82	47046	100.0068349	78
82	47125	100.0068698	78
83	46811	100.0066698	60
83	46890	100.0067349	60
83	46969	100.0067698	60
83	47048	100.0068349	60
83	47127	100.0068698	60
84	46787	100.00665584	60
84	46945	100.00675584	60
84	47103	100.00685584	60
85	46789	100.00665584	78
85	46947	100.00675584	78
85	47105	100.00685584	78
86	46793	100.00666272	78
86	46951	100.00676272	78
86	47109	100.00686272	78
87	46795	100.00666282	78
87	46953	100.00676282	78
87	47111	100.00686282	78
88	46795	100.00666282	78
88	46953	100.00676282	78
88	47111	100.00686282	78
89	46797	100.00666282	60
89	46955	100.00676282	60
89	47113	100.00686282	60
90	46839	100.00670698	60
90	46997	100.00680698	60
90	47155	100.00690698	60
91	46841	100.00670698	78
91	46999	100.00680698	78
91	47157	100.00690698	78
92	46845	100.00671386	78
92	47003	100.00681386	78
92	47161	100.00691386	78
93	46847	100.00671396	78
93	47005	100.00681396	78
93	47163	100.00691396	78
94	46847	100.00671396	78
94	47005	100.00681396	78
94	47163	100.00691396	78
95	46849	100.00671396	60
95	47007	100.00681396	60
95	47165	100.00691396	60
114	46853	100.00671396	60
114	47011	100.00681396	60
114	47169	100.00691396	60
115	46855	100.00671396	78
115	47013	100.00681396	78
115	47171	100.00691396	78
116	46859	100.00672084	78
116	47017	100.00682084	78
116	47175	100.00692084	78
117	46861	100.00672094	78
117	47019	100.00682094	78
117	47177	100.00692094	78
118	46861	100.00672094	78
118	47019	100.00682094	78
118	47177	100.00692094	78
119	46863	100.00672094	60
119	47021	100.00682094	60
119	47179	100.00692094	60
120	46867	100.00672094	60
120	47025	100.00682094	60
120	47183	100.00692094	60
121	46869	100.00672094	78
121	47027	100.00682094	78
121	47185	100.00692094	78
122	46873	100.00672782	78
122	47031	100.00682782	78
123	46875	100.00672792	78
123	47033	100.00682792	78
124	46875	100.00672792	78
124	47033	100.00682792	78
125	46877	100.00672792	60
125	47035	100.00682792	60
126	46917	100.00674188	60
126	47075	100.00684188	60
127	46761	100.00664188	78
127	46919	100.00674188	78
127	47077	100.00684188	78
128	46765	100.00664876	78
128	46923	100.00674876	78
128	47081	100.00684876	78
129	46767	100.00664886	78
129	46925	100.00674886	78
129	47083	100.00684886	78
130	46767	100.00664886	78
130	46925	100.00674886	78
130	47083	100.00684886	78
131	46769	100.00664886	60
131	46927	100.00674886	60
131	47085	100.00684886	60
132	46838	100.00670698	60
132	46996	100.00680698	60
132	47154	100.00690698	60
133	46840	100.00670698	78
133	46998	100.00680698	78
133	47156	100.00690698	78
134	46844	100.00671386	78
134	47002	100.00681386	78
134	47160	100.00691386	78
135	46846	100.00671396	78
135	47004	100.00681396	78
135	47162	100.00691396	78
136	46846	100.00671396	78
136	47004	100.00681396	78
136	47162	100.00691396	78
137	46848	100.00671396	60
137	47006	100.00681396	60
137	47164	100.00691396	60
144	46772	100.00664886	60
144	46930	100.00674886	60
144	47088	100.00684886	60
145	46774	100.00664886	78
145	46932	100.00674886	78
145	47090	100.00684886	78
146	46778	100.00665574	78
146	46936	100.00675574	78
146	47094	100.00685574	78
147	46780	100.00665584	78
147	46938	100.00675584	78
147	47096	100.00685584	78
148	46780	100.00665584	78
148	46938	100.00675584	78
148	47096	100.00685584	78
149	46782	100.00665584	60
149	46940	100.00675584	60
149	47098	100.00685584	60
156	46916	100.00674188	60
156	47074	100.00684188	60
157	46760	100.00664188	78
157	46918	100.00674188	78
157	47076	100.00684188	78
158	46764	100.00664876	78
158	46922	100.00674876	78
158	47080	100.00684876	78
159	46766	100.00664886	78
159	46924	100.00674886	78
159	47082	100.00684886	78
160	46766	100.00664886	78
160	46924	100.00674886	78
160	47082	100.00684886	78
161	46768	100.00664886	60
161	46926	100.00674886	60
161	47084	100.00684886	60
190	46820	100.0067	32
190	46978	100.0068	32
190	47136	100.0069	32
194	46821	100.0067	32
194	46979	100.0068	32
194	47137	100.0069	32
195	46822	100.0067	40
195	46899	100.0067349	40
195	46980	100.0068	40
195	47057	100.0068349	40
195	47138	100.0069	40
196	46823	100.0067	40
196	46898	100.0067349	40
196	46981	100.0068	40
196	47056	100.0068349	40
196	47139	100.0069	40
199	46826	100.0067	60
199	46903	100.0067349	60
199	46984	100.0068	60
199	47061	100.0068349	60
199	47142	100.0069	60
200	46827	100.0067	60
200	46902	100.0067349	60
200	46985	100.0068	60
200	47060	100.0068349	60
200	47143	100.0069	60
201	46828	100.0067	78
201	46905	100.0067349	78
201	46986	100.0068	78
201	47063	100.0068349	78
201	47144	100.0069	78
202	46829	100.0067	78
202	46904	100.0067349	78
202	46987	100.0068	78
202	47062	100.0068349	78
202	47145	100.0069	78
203	46830	100.00670688	78
203	46909	100.00674178	78
203	46988	100.00680688	78
203	47067	100.00684178	78
203	47146	100.00690688	78
204	46831	100.00670688	78
204	46908	100.00674178	78
204	46989	100.00680688	78
204	47066	100.00684178	78
204	47147	100.00690688	78
205	46832	100.00670698	78
205	46911	100.00674188	78
205	46990	100.00680698	78
205	47069	100.00684188	78
205	47148	100.00690698	78
206	46832	100.00670698	78
206	46911	100.00674188	78
206	46990	100.00680698	78
206	47069	100.00684188	78
206	47148	100.00690698	78
207	46833	100.00670698	78
207	46910	100.00674188	78
207	46991	100.00680698	78
207	47068	100.00684188	78
207	47149	100.00690698	78
208	46833	100.00670698	78
208	46910	100.00674188	78
208	46991	100.00680698	78
208	47068	100.00684188	78
208	47149	100.00690698	78
209	46834	100.00670698	60
209	46913	100.00674188	60
209	46992	100.00680698	60
209	47071	100.00684188	60
209	47150	100.00690698	60
210	46835	100.00670698	60
210	46912	100.00674188	60
210	46993	100.00680698	60
210	47070	100.00684188	60
210	47151	100.00690698	60
212	46815	100.0066698	40
212	46894	100.0067349	40
212	46973	100.0067698	40
212	47052	100.0068349	40
212	47131	100.0068698	40
213	46815	100.0066698	140
213	46894	100.0067349	141
213	46973	100.0067698	142
213	47052	100.0068349	143
213	47131	100.0068698	144
214	46814	100.0066698	40
214	46895	100.0067349	40
214	46972	100.0067698	40
214	47053	100.0068349	40
214	47130	100.0068698	40
215	46814	100.0066698	140
215	46895	100.0067349	141
215	46972	100.0067698	142
215	47053	100.0068349	143
215	47130	100.0068698	144
216	46896	100.0067349	32
216	47054	100.0068349	32
217	46897	100.0067349	32
217	47055	100.0068349	32
230	46816	100.0066698	32
230	46974	100.0067698	32
230	47132	100.0068698	32
232	46816	100.0066698	6.98e-005
232	46974	100.0067698	6.98e-005
232	47132	100.0068698	6.98e-005
233	46817	100.0066698	32
233	46975	100.0067698	32
233	47133	100.0068698	32
235	46817	100.0066698	6.98e-005
235	46975	100.0067698	6.98e-005
235	47133	100.0068698	6.98e-005

