version 2
run static-0-20190120-13:43:07-4960
attr configname static
attr datetime 20190120-13:43:07
attr experiment static
attr inifile omnetpp.ini
attr iterationvars ""
attr iterationvarsf ""
attr measurement ""
attr network DynamicTest
attr processid 4960
attr repetition 0
attr replication #0
attr resultdir results
attr runnumber 0
attr seedset 0
param *.scenarioManager.script "xml(\"<empty/>\")"
param **.ospf.ospfConfig "xmldoc(\"ASConfig.xml\")"
param **.ospf.helloInterval 1s
param **.ospf.retransmissionInterval 5s
param **.ospf.interfaceTransmissionDelay 1s
param **.ospf.routerDeadInterval 4s
param **.ospf.authentication.typename "\"NullType\""
param **.ospf.authenticationKey "\"0x00\""
param **.H*.numApps 5
param **.app[0].typename "\"UdpBasicApp\""
param **.app[0].destPort 1234
param **.app[0].messageLength "32 bytes"
param **.app[0].sendInterval 0.1s
param **.app[0].startTime 100s
param **.app[0].stopTime "this.startTime + 400s"
param **.H2.app[0].destAddresses "\"H1\""
param **.H1.app[0].destAddresses "\"H2\""
param **.app[1].typename "\"UdpEchoApp\""
param **.app[1].localPort 1234
param **.app[2].typename "\"UdpBasicApp\""
param **.app[2].destPort 1234
param **.app[2].messageLength "32 bytes"
param **.app[2].sendInterval 0.11s
param **.app[2].startTime 100s
param **.app[2].stopTime "this.startTime + 400s"
param **.H2.app[2].destAddresses "\"H1\""
param **.H1.app[2].destAddresses "\"H2\""
param **.app[3].typename "\"UdpBasicApp\""
param **.app[3].destPort 1234
param **.app[3].messageLength "32 bytes"
param **.app[3].sendInterval 0.3s
param **.app[3].startTime 100s
param **.app[3].stopTime "this.startTime + 400s"
param **.H2.app[3].destAddresses "\"H1\""
param **.H1.app[3].destAddresses "\"H2\""
param **.app[4].typename "\"UdpBasicApp\""
param **.app[4].destPort 1234
param **.app[4].messageLength "32 bytes"
param **.app[4].sendInterval 0.0001s
param **.app[4].startTime 100s
param **.app[4].stopTime "this.startTime + 400s"
param **.H2.app[4].destAddresses "\"H1\""
param **.H1.app[4].destAddresses "\"H2\""
param **.arp.cacheTimeout 1s
param *.configurator.addStaticRoutes false
param *.configurator.addSubnetRoutes false
param *.configurator.addDefaultRoutes false

scalar DynamicTest.H1.lo[0].lo rcvdPkFromHl:count 0
attr interpolationmode none
attr source packetReceivedFromUpper
attr title "packets received from higher layer, count"
scalar DynamicTest.H1.lo[0].lo rcvdPkFromHl:sum(packetBytes) 0
attr interpolationmode none
attr source packetReceivedFromUpper
attr title "packets received from higher layer, sum(packetBytes)"
scalar DynamicTest.H1.lo[0].lo passedUpPk:count 0
attr interpolationmode none
attr source packetSentToUpper
attr title "packets passed to higher layer, count"
scalar DynamicTest.H1.lo[0].lo passedUpPk:sum(packetBytes) 0
attr interpolationmode none
attr source packetSentToUpper
attr title "packets passed to higher layer, sum(packetBytes)"
scalar DynamicTest.H1.eth[0].mac "simulated time" 100.0069209594
scalar DynamicTest.H1.eth[0].mac full-duplex 1
scalar DynamicTest.H1.eth[0].mac "frames/sec sent" 1.4598989609856
scalar DynamicTest.H1.eth[0].mac "frames/sec rcvd" 2.4498304482292
scalar DynamicTest.H1.eth[0].mac "bits/sec sent" 909.85702916438
scalar DynamicTest.H1.eth[0].mac "bits/sec rcvd" 1559.5720626507
scalar DynamicTest.H1.eth[0].mac "rx channel idle (%)" 100
scalar DynamicTest.H1.eth[0].mac "rx channel utilization (%)" 0
scalar DynamicTest.H1.eth[0].mac txPk:count 146
attr interpolationmode none
attr source packetSentToLower
attr title "packets transmitted, count"
scalar DynamicTest.H1.eth[0].mac txPk:sum(packetBytes) 11374
attr interpolationmode none
attr source packetSentToLower
attr title "packets transmitted, sum(packetBytes)"
scalar DynamicTest.H1.eth[0].mac packetReceivedFromUpper:count 146
attr interpolationmode none
attr source packetReceivedFromUpper
attr title "packet bytes from higher layer, count"
scalar DynamicTest.H1.eth[0].mac packetReceivedFromUpper:sum(packetBytes) 11374
attr interpolationmode none
attr source packetReceivedFromUpper
attr title "packet bytes from higher layer, sum(packetBytes)"
scalar DynamicTest.H1.eth[0].mac passedUpPk:count 245
attr interpolationmode none
attr source packetSentToUpper
attr title "packets passed to higher layer, count"
scalar DynamicTest.H1.eth[0].mac passedUpPk:sum(packetBytes) 19496
attr interpolationmode none
attr source packetSentToUpper
attr title "packets passed to higher layer, sum(packetBytes)"
scalar DynamicTest.H1.eth[0].mac packetDropIncorrectlyReceived:count 0
attr interpolationmode none
attr source packetDropReasonIsIncorrectlyReceived(packetDropped)
attr title "packet drop: incorrectly received, count"
scalar DynamicTest.H1.eth[0].mac packetDropIncorrectlyReceived:sum(packetBytes) 0
attr interpolationmode none
attr source packetDropReasonIsIncorrectlyReceived(packetDropped)
attr title "packet drop: incorrectly received, sum(packetBytes)"
scalar DynamicTest.H1.eth[0].mac packetDropInterfaceDown:count 0
attr interpolationmode none
attr source packetDropReasonIsInterfaceDown(packetDropped)
attr title "packet drop: interface down, count"
scalar DynamicTest.H1.eth[0].mac packetDropInterfaceDown:sum(packetBytes) 0
attr interpolationmode none
attr source packetDropReasonIsInterfaceDown(packetDropped)
attr title "packet drop: interface down, sum(packetBytes)"
scalar DynamicTest.H1.eth[0].mac packetDropNotAddressedToUs:count 0
attr interpolationmode none
attr source packetDropReasonIsNotAddressedToUs(packetDropped)
attr title "packet drop: not addressed to us, count"
scalar DynamicTest.H1.eth[0].mac packetDropNotAddressedToUs:sum(packetBytes) 0
attr interpolationmode none
attr source packetDropReasonIsNotAddressedToUs(packetDropped)
attr title "packet drop: not addressed to us, sum(packetBytes)"
scalar DynamicTest.H1.eth[0].mac rxPausePkUnits:count 0
attr interpolationmode none
attr title "pause units received, count"
scalar DynamicTest.H1.eth[0].mac rxPausePkUnits:sum 0
attr interpolationmode none
attr title "pause units received, sum"
scalar DynamicTest.H1.eth[0].mac txPausePkUnits:count 0
attr interpolationmode none
attr title "pause units sent, count"
scalar DynamicTest.H1.eth[0].mac txPausePkUnits:sum 0
attr interpolationmode none
attr title "pause units sent, sum"
scalar DynamicTest.H1.eth[0].mac rxPkOk:count 245
attr interpolationmode none
attr source rxPkOk
attr title "packets received OK, count"
scalar DynamicTest.H1.eth[0].mac rxPkOk:sum(packetBytes) 19496
attr interpolationmode none
attr source rxPkOk
attr title "packets received OK, sum(packetBytes)"
scalar DynamicTest.H1.eth[0].encap pauseSent:count 0
attr title "pause sent, count"
scalar DynamicTest.H1.eth[0].encap pauseSent:sum 0
attr title "pause sent, sum"
scalar DynamicTest.H1.eth[0].encap decapPk:count 245
attr interpolationmode none
attr source decapPk
attr title "packets decapsulated, count"
scalar DynamicTest.H1.eth[0].encap decapPk:sum(packetBytes) 15086
attr interpolationmode none
attr source decapPk
attr title "packets decapsulated, sum(packetBytes)"
scalar DynamicTest.H1.eth[0].encap encapPk:count 146
attr interpolationmode none
attr source encapPk
attr title "packets encapsulated, count"
scalar DynamicTest.H1.eth[0].encap encapPk:sum(packetBytes) 8728
attr interpolationmode none
attr source encapPk
attr title "packets encapsulated, sum(packetBytes)"
scalar DynamicTest.H1.ipv4.ip packetDropAddressResolutionFailed:count 0
attr interpolationmode none
attr source packetDropReasonIsAddressResolutionFailed(packetDropped)
attr title "packet drop: address resolution failed, count"
scalar DynamicTest.H1.ipv4.ip packetDropAddressResolutionFailed:sum(packetBytes) 0
attr interpolationmode none
attr source packetDropReasonIsAddressResolutionFailed(packetDropped)
attr title "packet drop: address resolution failed, sum(packetBytes)"
scalar DynamicTest.H1.ipv4.ip packetDropHopLimitReached:count 0
attr interpolationmode none
attr source packetDropReasonIsHopLimitReached(packetDropped)
attr title "packet drop: hop limit reached, count"
scalar DynamicTest.H1.ipv4.ip packetDropHopLimitReached:sum(packetBytes) 0
attr interpolationmode none
attr source packetDropReasonIsHopLimitReached(packetDropped)
attr title "packet drop: hop limit reached, sum(packetBytes)"
scalar DynamicTest.H1.ipv4.ip packetDropForwardingDisabled:count 0
attr interpolationmode none
attr source packetDropReasonIsForwardingDisabled(packetDropped)
attr title "packet drop: forwarding disabled, count"
scalar DynamicTest.H1.ipv4.ip packetDropForwardingDisabled:sum(packetBytes) 0
attr interpolationmode none
attr source packetDropReasonIsForwardingDisabled(packetDropped)
attr title "packet drop: forwarding disabled, sum(packetBytes)"
scalar DynamicTest.H1.ipv4.ip packetDropNoInterfaceFound:count 0
attr interpolationmode none
attr source packetDropReasonIsNoInterfaceFound(packetDropped)
attr title "packet drop: no interface found, count"
scalar DynamicTest.H1.ipv4.ip packetDropNoInterfaceFound:sum(packetBytes) 0
attr interpolationmode none
attr source packetDropReasonIsNoInterfaceFound(packetDropped)
attr title "packet drop: no interface found, sum(packetBytes)"
scalar DynamicTest.H1.ipv4.ip packetDropNoRouteFound:count 0
attr interpolationmode none
attr source packetDropReasonIsNoRouteFound(packetDropped)
attr title "packet drop: no route found, count"
scalar DynamicTest.H1.ipv4.ip packetDropNoRouteFound:sum(packetBytes) 0
attr interpolationmode none
attr source packetDropReasonIsNoRouteFound(packetDropped)
attr title "packet drop: no route found, sum(packetBytes)"
scalar DynamicTest.H1.ipv4.ip packetDropUndefined:count 0
attr interpolationmode none
attr source packetDropReasonIsUndefined(packetDropped)
attr title "packet drop: undefined, count"
scalar DynamicTest.H1.ipv4.ip packetDropUndefined:sum(packetBytes) 0
attr interpolationmode none
attr source packetDropReasonIsUndefined(packetDropped)
attr title "packet drop: undefined, sum(packetBytes)"
scalar DynamicTest.H1.ipv4.arp arpReplySent:count 0
attr source arpReplySent
attr title "ARP replies sent, count"
scalar DynamicTest.H1.ipv4.arp arpReplySent:sum(packetBytes) 0
attr source arpReplySent
attr title "ARP replies sent, sum(packetBytes)"
scalar DynamicTest.H1.ipv4.arp arpRequestSent:count 1
attr source arpRequestSent
attr title "ARP request sent, count"
scalar DynamicTest.H1.ipv4.arp arpRequestSent:sum(packetBytes) 28
attr source arpRequestSent
attr title "ARP request sent, sum(packetBytes)"
scalar DynamicTest.H1.ipv4.arp arpResolutionFailed:count 0
attr title "ARP failed resolutions, count"
scalar DynamicTest.H1.ipv4.arp arpResolutionCompleted:count 1
attr title "ARP completed resolutions, count"
scalar DynamicTest.H1.ipv4.arp arpResolutionInitiated:count 1
attr title "ARP initiated resolutions, count"
scalar DynamicTest.H1.udp packetReceived:count 144
attr interpolationmode none
attr source packetReceived
attr title "packets received, count"
scalar DynamicTest.H1.udp packetReceived:sum(packetBytes) 5760
attr interpolationmode none
attr source packetReceived
attr title "packets received, sum(packetBytes)"
scalar DynamicTest.H1.udp packetSent:count 145
attr interpolationmode none
attr source packetSent
attr title "packets sent, count"
scalar DynamicTest.H1.udp packetSent:sum(packetBytes) 5800
attr interpolationmode none
attr source packetSent
attr title "packets sent, sum(packetBytes)"
scalar DynamicTest.H1.udp passedUpPk:count 144
attr interpolationmode none
attr source packetSentToUpper
attr title "packets passed up, count"
scalar DynamicTest.H1.udp droppedPkWrongPort:count 0
attr interpolationmode none
attr source packetDropReasonIsNoPortFound(packetDropped)
attr title "packets dropped (wrong port), count"
scalar DynamicTest.H1.udp droppedPkBadChecksum:count 0
attr interpolationmode none
attr source packetDropReasonIsIncorrectlyReceived(packetDropped)
attr title "packets dropped (checksum error), count"
scalar DynamicTest.H1.app[0] "packets sent" 1
scalar DynamicTest.H1.app[0] "packets received" 1
scalar DynamicTest.H1.app[0] packetReceived:count 1
attr interpolationmode none
attr source packetReceived
attr title "packets received, count"
scalar DynamicTest.H1.app[0] packetReceived:sum(packetBytes) 32
attr interpolationmode none
attr source packetReceived
attr title "packets received, sum(packetBytes)"
statistic DynamicTest.H1.app[0] rcvdPkLifetime:stats
field count 1
field mean 9.996e-005
field stddev nan
field min 9.996e-005
field max 9.996e-005
field sum 9.996e-005
field sqrsum 9.9920016e-009
attr interpolationmode none
attr source dataAge(packetReceived)
attr title "received packet lifetime, stats"
attr unit s
scalar DynamicTest.H1.app[0] packetSent:count 1
attr interpolationmode none
attr source packetSent
attr title "packets sent, count"
scalar DynamicTest.H1.app[0] packetSent:sum(packetBytes) 32
attr interpolationmode none
attr source packetSent
attr title "packets sent, sum(packetBytes)"
scalar DynamicTest.H1.app[1] echoedPk:count 72
attr interpolationmode none
attr source packetSent
attr title "packets echoed, count"
scalar DynamicTest.H1.app[1] echoedPk:sum(packetBytes) 2304
attr interpolationmode none
attr source packetSent
attr title "packets echoed, sum(packetBytes)"
scalar DynamicTest.H1.app[2] "packets sent" 1
scalar DynamicTest.H1.app[2] "packets received" 1
scalar DynamicTest.H1.app[2] packetReceived:count 1
attr interpolationmode none
attr source packetReceived
attr title "packets received, count"
scalar DynamicTest.H1.app[2] packetReceived:sum(packetBytes) 32
attr interpolationmode none
attr source packetReceived
attr title "packets received, sum(packetBytes)"
statistic DynamicTest.H1.app[2] rcvdPkLifetime:stats
field count 1
field mean 0.0001078
field stddev nan
field min 0.0001078
field max 0.0001078
field sum 0.0001078
field sqrsum 1.162084e-008
attr interpolationmode none
attr source dataAge(packetReceived)
attr title "received packet lifetime, stats"
attr unit s
scalar DynamicTest.H1.app[2] packetSent:count 1
attr interpolationmode none
attr source packetSent
attr title "packets sent, count"
scalar DynamicTest.H1.app[2] packetSent:sum(packetBytes) 32
attr interpolationmode none
attr source packetSent
attr title "packets sent, sum(packetBytes)"
scalar DynamicTest.H1.app[3] "packets sent" 1
scalar DynamicTest.H1.app[3] "packets received" 1
scalar DynamicTest.H1.app[3] packetReceived:count 1
attr interpolationmode none
attr source packetReceived
attr title "packets received, count"
scalar DynamicTest.H1.app[3] packetReceived:sum(packetBytes) 32
attr interpolationmode none
attr source packetReceived
attr title "packets received, sum(packetBytes)"
statistic DynamicTest.H1.app[3] rcvdPkLifetime:stats
field count 1
field mean 0.00012348
field stddev nan
field min 0.00012348
field max 0.00012348
field sum 0.00012348
field sqrsum 1.52473104e-008
attr interpolationmode none
attr source dataAge(packetReceived)
attr title "received packet lifetime, stats"
attr unit s
scalar DynamicTest.H1.app[3] packetSent:count 1
attr interpolationmode none
attr source packetSent
attr title "packets sent, count"
scalar DynamicTest.H1.app[3] packetSent:sum(packetBytes) 32
attr interpolationmode none
attr source packetSent
attr title "packets sent, sum(packetBytes)"
scalar DynamicTest.H1.app[4] "packets sent" 70
scalar DynamicTest.H1.app[4] "packets received" 69
scalar DynamicTest.H1.app[4] packetReceived:count 69
attr interpolationmode none
attr source packetReceived
attr title "packets received, count"
scalar DynamicTest.H1.app[4] packetReceived:sum(packetBytes) 2208
attr interpolationmode none
attr source packetReceived
attr title "packets received, sum(packetBytes)"
statistic DynamicTest.H1.app[4] rcvdPkLifetime:stats
field count 69
field mean 7.0464347826087e-005
field stddev 5.5184875054514e-006
field min 6.98e-005
field max 0.00011564
field sum 0.00486204
field sqrsum 3.446713296e-007
attr interpolationmode none
attr source dataAge(packetReceived)
attr title "received packet lifetime, stats"
attr unit s
scalar DynamicTest.H1.app[4] packetSent:count 70
attr interpolationmode none
attr source packetSent
attr title "packets sent, count"
scalar DynamicTest.H1.app[4] packetSent:sum(packetBytes) 2240
attr interpolationmode none
attr source packetSent
attr title "packets sent, sum(packetBytes)"
scalar DynamicTest.R1.lo[0].lo rcvdPkFromHl:count 0
attr interpolationmode none
attr source packetReceivedFromUpper
attr title "packets received from higher layer, count"
scalar DynamicTest.R1.lo[0].lo rcvdPkFromHl:sum(packetBytes) 0
attr interpolationmode none
attr source packetReceivedFromUpper
attr title "packets received from higher layer, sum(packetBytes)"
scalar DynamicTest.R1.lo[0].lo passedUpPk:count 0
attr interpolationmode none
attr source packetSentToUpper
attr title "packets passed to higher layer, count"
scalar DynamicTest.R1.lo[0].lo passedUpPk:sum(packetBytes) 0
attr interpolationmode none
attr source packetSentToUpper
attr title "packets passed to higher layer, sum(packetBytes)"
scalar DynamicTest.R1.eth[0].mac "simulated time" 100.0069209594
scalar DynamicTest.R1.eth[0].mac full-duplex 1
scalar DynamicTest.R1.eth[0].mac "frames/sec sent" 2.4498304482292
scalar DynamicTest.R1.eth[0].mac "frames/sec rcvd" 1.4598989609856
scalar DynamicTest.R1.eth[0].mac "bits/sec sent" 1559.5720626507
scalar DynamicTest.R1.eth[0].mac "bits/sec rcvd" 909.85702916438
scalar DynamicTest.R1.eth[0].mac "rx channel idle (%)" 100
scalar DynamicTest.R1.eth[0].mac "rx channel utilization (%)" 0
scalar DynamicTest.R1.eth[0].mac txPk:count 245
attr interpolationmode none
attr source packetSentToLower
attr title "packets transmitted, count"
scalar DynamicTest.R1.eth[0].mac txPk:sum(packetBytes) 19496
attr interpolationmode none
attr source packetSentToLower
attr title "packets transmitted, sum(packetBytes)"
scalar DynamicTest.R1.eth[0].mac packetReceivedFromUpper:count 245
attr interpolationmode none
attr source packetReceivedFromUpper
attr title "packet bytes from higher layer, count"
scalar DynamicTest.R1.eth[0].mac packetReceivedFromUpper:sum(packetBytes) 19496
attr interpolationmode none
attr source packetReceivedFromUpper
attr title "packet bytes from higher layer, sum(packetBytes)"
scalar DynamicTest.R1.eth[0].mac passedUpPk:count 146
attr interpolationmode none
attr source packetSentToUpper
attr title "packets passed to higher layer, count"
scalar DynamicTest.R1.eth[0].mac passedUpPk:sum(packetBytes) 11374
attr interpolationmode none
attr source packetSentToUpper
attr title "packets passed to higher layer, sum(packetBytes)"
scalar DynamicTest.R1.eth[0].mac packetDropIncorrectlyReceived:count 0
attr interpolationmode none
attr source packetDropReasonIsIncorrectlyReceived(packetDropped)
attr title "packet drop: incorrectly received, count"
scalar DynamicTest.R1.eth[0].mac packetDropIncorrectlyReceived:sum(packetBytes) 0
attr interpolationmode none
attr source packetDropReasonIsIncorrectlyReceived(packetDropped)
attr title "packet drop: incorrectly received, sum(packetBytes)"
scalar DynamicTest.R1.eth[0].mac packetDropInterfaceDown:count 0
attr interpolationmode none
attr source packetDropReasonIsInterfaceDown(packetDropped)
attr title "packet drop: interface down, count"
scalar DynamicTest.R1.eth[0].mac packetDropInterfaceDown:sum(packetBytes) 0
attr interpolationmode none
attr source packetDropReasonIsInterfaceDown(packetDropped)
attr title "packet drop: interface down, sum(packetBytes)"
scalar DynamicTest.R1.eth[0].mac packetDropNotAddressedToUs:count 0
attr interpolationmode none
attr source packetDropReasonIsNotAddressedToUs(packetDropped)
attr title "packet drop: not addressed to us, count"
scalar DynamicTest.R1.eth[0].mac packetDropNotAddressedToUs:sum(packetBytes) 0
attr interpolationmode none
attr source packetDropReasonIsNotAddressedToUs(packetDropped)
attr title "packet drop: not addressed to us, sum(packetBytes)"
scalar DynamicTest.R1.eth[0].mac rxPausePkUnits:count 0
attr interpolationmode none
attr title "pause units received, count"
scalar DynamicTest.R1.eth[0].mac rxPausePkUnits:sum 0
attr interpolationmode none
attr title "pause units received, sum"
scalar DynamicTest.R1.eth[0].mac txPausePkUnits:count 0
attr interpolationmode none
attr title "pause units sent, count"
scalar DynamicTest.R1.eth[0].mac txPausePkUnits:sum 0
attr interpolationmode none
attr title "pause units sent, sum"
scalar DynamicTest.R1.eth[0].mac rxPkOk:count 146
attr interpolationmode none
attr source rxPkOk
attr title "packets received OK, count"
scalar DynamicTest.R1.eth[0].mac rxPkOk:sum(packetBytes) 11374
attr interpolationmode none
attr source rxPkOk
attr title "packets received OK, sum(packetBytes)"
scalar DynamicTest.R1.eth[0].encap pauseSent:count 0
attr title "pause sent, count"
scalar DynamicTest.R1.eth[0].encap pauseSent:sum 0
attr title "pause sent, sum"
scalar DynamicTest.R1.eth[0].encap decapPk:count 146
attr interpolationmode none
attr source decapPk
attr title "packets decapsulated, count"
scalar DynamicTest.R1.eth[0].encap decapPk:sum(packetBytes) 8746
attr interpolationmode none
attr source decapPk
attr title "packets decapsulated, sum(packetBytes)"
scalar DynamicTest.R1.eth[0].encap encapPk:count 245
attr interpolationmode none
attr source encapPk
attr title "packets encapsulated, count"
scalar DynamicTest.R1.eth[0].encap encapPk:sum(packetBytes) 15068
attr interpolationmode none
attr source encapPk
attr title "packets encapsulated, sum(packetBytes)"
scalar DynamicTest.R1.eth[1].mac "simulated time" 100.0069209594
scalar DynamicTest.R1.eth[1].mac full-duplex 1
scalar DynamicTest.R1.eth[1].mac "frames/sec sent" 1.9098678188236
scalar DynamicTest.R1.eth[1].mac "frames/sec rcvd" 1.9598643585834
scalar DynamicTest.R1.eth[1].mac "bits/sec sent" 1302.6298455172
scalar DynamicTest.R1.eth[1].mac "bits/sec rcvd" 1355.4261915035
scalar DynamicTest.R1.eth[1].mac "rx channel idle (%)" 100
scalar DynamicTest.R1.eth[1].mac "rx channel utilization (%)" 0
scalar DynamicTest.R1.eth[1].mac txPk:count 191
attr interpolationmode none
attr source packetSentToLower
attr title "packets transmitted, count"
scalar DynamicTest.R1.eth[1].mac txPk:sum(packetBytes) 16284
attr interpolationmode none
attr source packetSentToLower
attr title "packets transmitted, sum(packetBytes)"
scalar DynamicTest.R1.eth[1].mac packetReceivedFromUpper:count 191
attr interpolationmode none
attr source packetReceivedFromUpper
attr title "packet bytes from higher layer, count"
scalar DynamicTest.R1.eth[1].mac packetReceivedFromUpper:sum(packetBytes) 16284
attr interpolationmode none
attr source packetReceivedFromUpper
attr title "packet bytes from higher layer, sum(packetBytes)"
scalar DynamicTest.R1.eth[1].mac passedUpPk:count 196
attr interpolationmode none
attr source packetSentToUpper
attr title "packets passed to higher layer, count"
scalar DynamicTest.R1.eth[1].mac passedUpPk:sum(packetBytes) 16944
attr interpolationmode none
attr source packetSentToUpper
attr title "packets passed to higher layer, sum(packetBytes)"
scalar DynamicTest.R1.eth[1].mac packetDropIncorrectlyReceived:count 0
attr interpolationmode none
attr source packetDropReasonIsIncorrectlyReceived(packetDropped)
attr title "packet drop: incorrectly received, count"
scalar DynamicTest.R1.eth[1].mac packetDropIncorrectlyReceived:sum(packetBytes) 0
attr interpolationmode none
attr source packetDropReasonIsIncorrectlyReceived(packetDropped)
attr title "packet drop: incorrectly received, sum(packetBytes)"
scalar DynamicTest.R1.eth[1].mac packetDropInterfaceDown:count 0
attr interpolationmode none
attr source packetDropReasonIsInterfaceDown(packetDropped)
attr title "packet drop: interface down, count"
scalar DynamicTest.R1.eth[1].mac packetDropInterfaceDown:sum(packetBytes) 0
attr interpolationmode none
attr source packetDropReasonIsInterfaceDown(packetDropped)
attr title "packet drop: interface down, sum(packetBytes)"
scalar DynamicTest.R1.eth[1].mac packetDropNotAddressedToUs:count 0
attr interpolationmode none
attr source packetDropReasonIsNotAddressedToUs(packetDropped)
attr title "packet drop: not addressed to us, count"
scalar DynamicTest.R1.eth[1].mac packetDropNotAddressedToUs:sum(packetBytes) 0
attr interpolationmode none
attr source packetDropReasonIsNotAddressedToUs(packetDropped)
attr title "packet drop: not addressed to us, sum(packetBytes)"
scalar DynamicTest.R1.eth[1].mac rxPausePkUnits:count 0
attr interpolationmode none
attr title "pause units received, count"
scalar DynamicTest.R1.eth[1].mac rxPausePkUnits:sum 0
attr interpolationmode none
attr title "pause units received, sum"
scalar DynamicTest.R1.eth[1].mac txPausePkUnits:count 0
attr interpolationmode none
attr title "pause units sent, count"
scalar DynamicTest.R1.eth[1].mac txPausePkUnits:sum 0
attr interpolationmode none
attr title "pause units sent, sum"
scalar DynamicTest.R1.eth[1].mac rxPkOk:count 196
attr interpolationmode none
attr source rxPkOk
attr title "packets received OK, count"
scalar DynamicTest.R1.eth[1].mac rxPkOk:sum(packetBytes) 16944
attr interpolationmode none
attr source rxPkOk
attr title "packets received OK, sum(packetBytes)"
scalar DynamicTest.R1.eth[1].encap pauseSent:count 0
attr title "pause sent, count"
scalar DynamicTest.R1.eth[1].encap pauseSent:sum 0
attr title "pause sent, sum"
scalar DynamicTest.R1.eth[1].encap decapPk:count 196
attr interpolationmode none
attr source decapPk
attr title "packets decapsulated, count"
scalar DynamicTest.R1.eth[1].encap decapPk:sum(packetBytes) 13416
attr interpolationmode none
attr source decapPk
attr title "packets decapsulated, sum(packetBytes)"
scalar DynamicTest.R1.eth[1].encap encapPk:count 191
attr interpolationmode none
attr source encapPk
attr title "packets encapsulated, count"
scalar DynamicTest.R1.eth[1].encap encapPk:sum(packetBytes) 12804
attr interpolationmode none
attr source encapPk
attr title "packets encapsulated, sum(packetBytes)"
scalar DynamicTest.R1.eth[2].mac "simulated time" 100.0069209594
scalar DynamicTest.R1.eth[2].mac full-duplex 1
scalar DynamicTest.R1.eth[2].mac "frames/sec sent" 1.9998615903912
scalar DynamicTest.R1.eth[2].mac "frames/sec rcvd" 1.9398657426795
scalar DynamicTest.R1.eth[2].mac "bits/sec sent" 1382.9442869873
scalar DynamicTest.R1.eth[2].mac "bits/sec rcvd" 1320.5486053671
scalar DynamicTest.R1.eth[2].mac "rx channel idle (%)" 100
scalar DynamicTest.R1.eth[2].mac "rx channel utilization (%)" 0
scalar DynamicTest.R1.eth[2].mac txPk:count 200
attr interpolationmode none
attr source packetSentToLower
attr title "packets transmitted, count"
scalar DynamicTest.R1.eth[2].mac txPk:sum(packetBytes) 17288
attr interpolationmode none
attr source packetSentToLower
attr title "packets transmitted, sum(packetBytes)"
scalar DynamicTest.R1.eth[2].mac packetReceivedFromUpper:count 200
attr interpolationmode none
attr source packetReceivedFromUpper
attr title "packet bytes from higher layer, count"
scalar DynamicTest.R1.eth[2].mac packetReceivedFromUpper:sum(packetBytes) 17288
attr interpolationmode none
attr source packetReceivedFromUpper
attr title "packet bytes from higher layer, sum(packetBytes)"
scalar DynamicTest.R1.eth[2].mac passedUpPk:count 194
attr interpolationmode none
attr source packetSentToUpper
attr title "packets passed to higher layer, count"
scalar DynamicTest.R1.eth[2].mac passedUpPk:sum(packetBytes) 16508
attr interpolationmode none
attr source packetSentToUpper
attr title "packets passed to higher layer, sum(packetBytes)"
scalar DynamicTest.R1.eth[2].mac packetDropIncorrectlyReceived:count 0
attr interpolationmode none
attr source packetDropReasonIsIncorrectlyReceived(packetDropped)
attr title "packet drop: incorrectly received, count"
scalar DynamicTest.R1.eth[2].mac packetDropIncorrectlyReceived:sum(packetBytes) 0
attr interpolationmode none
attr source packetDropReasonIsIncorrectlyReceived(packetDropped)
attr title "packet drop: incorrectly received, sum(packetBytes)"
scalar DynamicTest.R1.eth[2].mac packetDropInterfaceDown:count 0
attr interpolationmode none
attr source packetDropReasonIsInterfaceDown(packetDropped)
attr title "packet drop: interface down, count"
scalar DynamicTest.R1.eth[2].mac packetDropInterfaceDown:sum(packetBytes) 0
attr interpolationmode none
attr source packetDropReasonIsInterfaceDown(packetDropped)
attr title "packet drop: interface down, sum(packetBytes)"
scalar DynamicTest.R1.eth[2].mac packetDropNotAddressedToUs:count 0
attr interpolationmode none
attr source packetDropReasonIsNotAddressedToUs(packetDropped)
attr title "packet drop: not addressed to us, count"
scalar DynamicTest.R1.eth[2].mac packetDropNotAddressedToUs:sum(packetBytes) 0
attr interpolationmode none
attr source packetDropReasonIsNotAddressedToUs(packetDropped)
attr title "packet drop: not addressed to us, sum(packetBytes)"
scalar DynamicTest.R1.eth[2].mac rxPausePkUnits:count 0
attr interpolationmode none
attr title "pause units received, count"
scalar DynamicTest.R1.eth[2].mac rxPausePkUnits:sum 0
attr interpolationmode none
attr title "pause units received, sum"
scalar DynamicTest.R1.eth[2].mac txPausePkUnits:count 0
attr interpolationmode none
attr title "pause units sent, count"
scalar DynamicTest.R1.eth[2].mac txPausePkUnits:sum 0
attr interpolationmode none
attr title "pause units sent, sum"
scalar DynamicTest.R1.eth[2].mac rxPkOk:count 194
attr interpolationmode none
attr source rxPkOk
attr title "packets received OK, count"
scalar DynamicTest.R1.eth[2].mac rxPkOk:sum(packetBytes) 16508
attr interpolationmode none
attr source rxPkOk
attr title "packets received OK, sum(packetBytes)"
scalar DynamicTest.R1.eth[2].encap pauseSent:count 0
attr title "pause sent, count"
scalar DynamicTest.R1.eth[2].encap pauseSent:sum 0
attr title "pause sent, sum"
scalar DynamicTest.R1.eth[2].encap decapPk:count 194
attr interpolationmode none
attr source decapPk
attr title "packets decapsulated, count"
scalar DynamicTest.R1.eth[2].encap decapPk:sum(packetBytes) 13016
attr interpolationmode none
attr source decapPk
attr title "packets decapsulated, sum(packetBytes)"
scalar DynamicTest.R1.eth[2].encap encapPk:count 200
attr interpolationmode none
attr source encapPk
attr title "packets encapsulated, count"
scalar DynamicTest.R1.eth[2].encap encapPk:sum(packetBytes) 13652
attr interpolationmode none
attr source encapPk
attr title "packets encapsulated, sum(packetBytes)"
scalar DynamicTest.R1.eth[3].mac "simulated time" 100.0069209594
scalar DynamicTest.R1.eth[3].mac full-duplex 1
scalar DynamicTest.R1.eth[3].mac "frames/sec sent" 0
scalar DynamicTest.R1.eth[3].mac "frames/sec rcvd" 0.9999307951956
scalar DynamicTest.R1.eth[3].mac "bits/sec sent" 0
scalar DynamicTest.R1.eth[3].mac "bits/sec rcvd" 655.95460164831
scalar DynamicTest.R1.eth[3].mac "rx channel idle (%)" 100
scalar DynamicTest.R1.eth[3].mac "rx channel utilization (%)" 0
scalar DynamicTest.R1.eth[3].mac txPk:count 0
attr interpolationmode none
attr source packetSentToLower
attr title "packets transmitted, count"
scalar DynamicTest.R1.eth[3].mac txPk:sum(packetBytes) 0
attr interpolationmode none
attr source packetSentToLower
attr title "packets transmitted, sum(packetBytes)"
scalar DynamicTest.R1.eth[3].mac packetReceivedFromUpper:count 0
attr interpolationmode none
attr source packetReceivedFromUpper
attr title "packet bytes from higher layer, count"
scalar DynamicTest.R1.eth[3].mac packetReceivedFromUpper:sum(packetBytes) 0
attr interpolationmode none
attr source packetReceivedFromUpper
attr title "packet bytes from higher layer, sum(packetBytes)"
scalar DynamicTest.R1.eth[3].mac passedUpPk:count 100
attr interpolationmode none
attr source packetSentToUpper
attr title "packets passed to higher layer, count"
scalar DynamicTest.R1.eth[3].mac passedUpPk:sum(packetBytes) 8200
attr interpolationmode none
attr source packetSentToUpper
attr title "packets passed to higher layer, sum(packetBytes)"
scalar DynamicTest.R1.eth[3].mac packetDropIncorrectlyReceived:count 0
attr interpolationmode none
attr source packetDropReasonIsIncorrectlyReceived(packetDropped)
attr title "packet drop: incorrectly received, count"
scalar DynamicTest.R1.eth[3].mac packetDropIncorrectlyReceived:sum(packetBytes) 0
attr interpolationmode none
attr source packetDropReasonIsIncorrectlyReceived(packetDropped)
attr title "packet drop: incorrectly received, sum(packetBytes)"
scalar DynamicTest.R1.eth[3].mac packetDropInterfaceDown:count 0
attr interpolationmode none
attr source packetDropReasonIsInterfaceDown(packetDropped)
attr title "packet drop: interface down, count"
scalar DynamicTest.R1.eth[3].mac packetDropInterfaceDown:sum(packetBytes) 0
attr interpolationmode none
attr source packetDropReasonIsInterfaceDown(packetDropped)
attr title "packet drop: interface down, sum(packetBytes)"
scalar DynamicTest.R1.eth[3].mac packetDropNotAddressedToUs:count 0
attr interpolationmode none
attr source packetDropReasonIsNotAddressedToUs(packetDropped)
attr title "packet drop: not addressed to us, count"
scalar DynamicTest.R1.eth[3].mac packetDropNotAddressedToUs:sum(packetBytes) 0
attr interpolationmode none
attr source packetDropReasonIsNotAddressedToUs(packetDropped)
attr title "packet drop: not addressed to us, sum(packetBytes)"
scalar DynamicTest.R1.eth[3].mac rxPausePkUnits:count 0
attr interpolationmode none
attr title "pause units received, count"
scalar DynamicTest.R1.eth[3].mac rxPausePkUnits:sum 0
attr interpolationmode none
attr title "pause units received, sum"
scalar DynamicTest.R1.eth[3].mac txPausePkUnits:count 0
attr interpolationmode none
attr title "pause units sent, count"
scalar DynamicTest.R1.eth[3].mac txPausePkUnits:sum 0
attr interpolationmode none
attr title "pause units sent, sum"
scalar DynamicTest.R1.eth[3].mac rxPkOk:count 100
attr interpolationmode none
attr source rxPkOk
attr title "packets received OK, count"
scalar DynamicTest.R1.eth[3].mac rxPkOk:sum(packetBytes) 8200
attr interpolationmode none
attr source rxPkOk
attr title "packets received OK, sum(packetBytes)"
scalar DynamicTest.R1.eth[3].encap pauseSent:count 0
attr title "pause sent, count"
scalar DynamicTest.R1.eth[3].encap pauseSent:sum 0
attr title "pause sent, sum"
scalar DynamicTest.R1.eth[3].encap decapPk:count 100
attr interpolationmode none
attr source decapPk
attr title "packets decapsulated, count"
scalar DynamicTest.R1.eth[3].encap decapPk:sum(packetBytes) 6400
attr interpolationmode none
attr source decapPk
attr title "packets decapsulated, sum(packetBytes)"
scalar DynamicTest.R1.eth[3].encap encapPk:count 0
attr interpolationmode none
attr source encapPk
attr title "packets encapsulated, count"
scalar DynamicTest.R1.eth[3].encap encapPk:sum(packetBytes) 0
attr interpolationmode none
attr source encapPk
attr title "packets encapsulated, sum(packetBytes)"
scalar DynamicTest.R1.ipv4.ip packetDropAddressResolutionFailed:count 0
attr interpolationmode none
attr source packetDropReasonIsAddressResolutionFailed(packetDropped)
attr title "packet drop: address resolution failed, count"
scalar DynamicTest.R1.ipv4.ip packetDropAddressResolutionFailed:sum(packetBytes) 0
attr interpolationmode none
attr source packetDropReasonIsAddressResolutionFailed(packetDropped)
attr title "packet drop: address resolution failed, sum(packetBytes)"
scalar DynamicTest.R1.ipv4.ip packetDropHopLimitReached:count 0
attr interpolationmode none
attr source packetDropReasonIsHopLimitReached(packetDropped)
attr title "packet drop: hop limit reached, count"
scalar DynamicTest.R1.ipv4.ip packetDropHopLimitReached:sum(packetBytes) 0
attr interpolationmode none
attr source packetDropReasonIsHopLimitReached(packetDropped)
attr title "packet drop: hop limit reached, sum(packetBytes)"
scalar DynamicTest.R1.ipv4.ip packetDropForwardingDisabled:count 0
attr interpolationmode none
attr source packetDropReasonIsForwardingDisabled(packetDropped)
attr title "packet drop: forwarding disabled, count"
scalar DynamicTest.R1.ipv4.ip packetDropForwardingDisabled:sum(packetBytes) 0
attr interpolationmode none
attr source packetDropReasonIsForwardingDisabled(packetDropped)
attr title "packet drop: forwarding disabled, sum(packetBytes)"
scalar DynamicTest.R1.ipv4.ip packetDropNoInterfaceFound:count 0
attr interpolationmode none
attr source packetDropReasonIsNoInterfaceFound(packetDropped)
attr title "packet drop: no interface found, count"
scalar DynamicTest.R1.ipv4.ip packetDropNoInterfaceFound:sum(packetBytes) 0
attr interpolationmode none
attr source packetDropReasonIsNoInterfaceFound(packetDropped)
attr title "packet drop: no interface found, sum(packetBytes)"
scalar DynamicTest.R1.ipv4.ip packetDropNoRouteFound:count 0
attr interpolationmode none
attr source packetDropReasonIsNoRouteFound(packetDropped)
attr title "packet drop: no route found, count"
scalar DynamicTest.R1.ipv4.ip packetDropNoRouteFound:sum(packetBytes) 0
attr interpolationmode none
attr source packetDropReasonIsNoRouteFound(packetDropped)
attr title "packet drop: no route found, sum(packetBytes)"
scalar DynamicTest.R1.ipv4.ip packetDropUndefined:count 0
attr interpolationmode none
attr source packetDropReasonIsUndefined(packetDropped)
attr title "packet drop: undefined, count"
scalar DynamicTest.R1.ipv4.ip packetDropUndefined:sum(packetBytes) 0
attr interpolationmode none
attr source packetDropReasonIsUndefined(packetDropped)
attr title "packet drop: undefined, sum(packetBytes)"
scalar DynamicTest.R1.ipv4.arp arpReplySent:count 2
attr source arpReplySent
attr title "ARP replies sent, count"
scalar DynamicTest.R1.ipv4.arp arpReplySent:sum(packetBytes) 56
attr source arpReplySent
attr title "ARP replies sent, sum(packetBytes)"
scalar DynamicTest.R1.ipv4.arp arpRequestSent:count 3
attr source arpRequestSent
attr title "ARP request sent, count"
scalar DynamicTest.R1.ipv4.arp arpRequestSent:sum(packetBytes) 84
attr source arpRequestSent
attr title "ARP request sent, sum(packetBytes)"
scalar DynamicTest.R1.ipv4.arp arpResolutionFailed:count 0
attr title "ARP failed resolutions, count"
scalar DynamicTest.R1.ipv4.arp arpResolutionCompleted:count 5
attr title "ARP completed resolutions, count"
scalar DynamicTest.R1.ipv4.arp arpResolutionInitiated:count 3
attr title "ARP initiated resolutions, count"
scalar DynamicTest.RA.lo[0].lo rcvdPkFromHl:count 0
attr interpolationmode none
attr source packetReceivedFromUpper
attr title "packets received from higher layer, count"
scalar DynamicTest.RA.lo[0].lo rcvdPkFromHl:sum(packetBytes) 0
attr interpolationmode none
attr source packetReceivedFromUpper
attr title "packets received from higher layer, sum(packetBytes)"
scalar DynamicTest.RA.lo[0].lo passedUpPk:count 0
attr interpolationmode none
attr source packetSentToUpper
attr title "packets passed to higher layer, count"
scalar DynamicTest.RA.lo[0].lo passedUpPk:sum(packetBytes) 0
attr interpolationmode none
attr source packetSentToUpper
attr title "packets passed to higher layer, sum(packetBytes)"
scalar DynamicTest.RA.eth[0].mac "simulated time" 100.0069209594
scalar DynamicTest.RA.eth[0].mac full-duplex 1
scalar DynamicTest.RA.eth[0].mac "frames/sec sent" 1.9598643585834
scalar DynamicTest.RA.eth[0].mac "frames/sec rcvd" 1.9098678188236
scalar DynamicTest.RA.eth[0].mac "bits/sec sent" 1355.4261915035
scalar DynamicTest.RA.eth[0].mac "bits/sec rcvd" 1302.6298455172
scalar DynamicTest.RA.eth[0].mac "rx channel idle (%)" 100
scalar DynamicTest.RA.eth[0].mac "rx channel utilization (%)" 0
scalar DynamicTest.RA.eth[0].mac txPk:count 196
attr interpolationmode none
attr source packetSentToLower
attr title "packets transmitted, count"
scalar DynamicTest.RA.eth[0].mac txPk:sum(packetBytes) 16944
attr interpolationmode none
attr source packetSentToLower
attr title "packets transmitted, sum(packetBytes)"
scalar DynamicTest.RA.eth[0].mac packetReceivedFromUpper:count 197
attr interpolationmode none
attr source packetReceivedFromUpper
attr title "packet bytes from higher layer, count"
scalar DynamicTest.RA.eth[0].mac packetReceivedFromUpper:sum(packetBytes) 17022
attr interpolationmode none
attr source packetReceivedFromUpper
attr title "packet bytes from higher layer, sum(packetBytes)"
scalar DynamicTest.RA.eth[0].mac passedUpPk:count 191
attr interpolationmode none
attr source packetSentToUpper
attr title "packets passed to higher layer, count"
scalar DynamicTest.RA.eth[0].mac passedUpPk:sum(packetBytes) 16284
attr interpolationmode none
attr source packetSentToUpper
attr title "packets passed to higher layer, sum(packetBytes)"
scalar DynamicTest.RA.eth[0].mac packetDropIncorrectlyReceived:count 0
attr interpolationmode none
attr source packetDropReasonIsIncorrectlyReceived(packetDropped)
attr title "packet drop: incorrectly received, count"
scalar DynamicTest.RA.eth[0].mac packetDropIncorrectlyReceived:sum(packetBytes) 0
attr interpolationmode none
attr source packetDropReasonIsIncorrectlyReceived(packetDropped)
attr title "packet drop: incorrectly received, sum(packetBytes)"
scalar DynamicTest.RA.eth[0].mac packetDropInterfaceDown:count 0
attr interpolationmode none
attr source packetDropReasonIsInterfaceDown(packetDropped)
attr title "packet drop: interface down, count"
scalar DynamicTest.RA.eth[0].mac packetDropInterfaceDown:sum(packetBytes) 0
attr interpolationmode none
attr source packetDropReasonIsInterfaceDown(packetDropped)
attr title "packet drop: interface down, sum(packetBytes)"
scalar DynamicTest.RA.eth[0].mac packetDropNotAddressedToUs:count 0
attr interpolationmode none
attr source packetDropReasonIsNotAddressedToUs(packetDropped)
attr title "packet drop: not addressed to us, count"
scalar DynamicTest.RA.eth[0].mac packetDropNotAddressedToUs:sum(packetBytes) 0
attr interpolationmode none
attr source packetDropReasonIsNotAddressedToUs(packetDropped)
attr title "packet drop: not addressed to us, sum(packetBytes)"
scalar DynamicTest.RA.eth[0].mac rxPausePkUnits:count 0
attr interpolationmode none
attr title "pause units received, count"
scalar DynamicTest.RA.eth[0].mac rxPausePkUnits:sum 0
attr interpolationmode none
attr title "pause units received, sum"
scalar DynamicTest.RA.eth[0].mac txPausePkUnits:count 0
attr interpolationmode none
attr title "pause units sent, count"
scalar DynamicTest.RA.eth[0].mac txPausePkUnits:sum 0
attr interpolationmode none
attr title "pause units sent, sum"
scalar DynamicTest.RA.eth[0].mac rxPkOk:count 191
attr interpolationmode none
attr source rxPkOk
attr title "packets received OK, count"
scalar DynamicTest.RA.eth[0].mac rxPkOk:sum(packetBytes) 16284
attr interpolationmode none
attr source rxPkOk
attr title "packets received OK, sum(packetBytes)"
scalar DynamicTest.RA.eth[0].encap pauseSent:count 0
attr title "pause sent, count"
scalar DynamicTest.RA.eth[0].encap pauseSent:sum 0
attr title "pause sent, sum"
scalar DynamicTest.RA.eth[0].encap decapPk:count 191
attr interpolationmode none
attr source decapPk
attr title "packets decapsulated, count"
scalar DynamicTest.RA.eth[0].encap decapPk:sum(packetBytes) 12846
attr interpolationmode none
attr source decapPk
attr title "packets decapsulated, sum(packetBytes)"
scalar DynamicTest.RA.eth[0].encap encapPk:count 197
attr interpolationmode none
attr source encapPk
attr title "packets encapsulated, count"
scalar DynamicTest.RA.eth[0].encap encapPk:sum(packetBytes) 13440
attr interpolationmode none
attr source encapPk
attr title "packets encapsulated, sum(packetBytes)"
scalar DynamicTest.RA.eth[1].mac "simulated time" 100.0069209594
scalar DynamicTest.RA.eth[1].mac full-duplex 1
scalar DynamicTest.RA.eth[1].mac "frames/sec sent" 1.9698636665353
scalar DynamicTest.RA.eth[1].mac "frames/sec rcvd" 1.9998615903912
scalar DynamicTest.RA.eth[1].mac "bits/sec sent" 1359.5859036115
scalar DynamicTest.RA.eth[1].mac "bits/sec rcvd" 1373.8249181351
scalar DynamicTest.RA.eth[1].mac "rx channel idle (%)" 100
scalar DynamicTest.RA.eth[1].mac "rx channel utilization (%)" 0
scalar DynamicTest.RA.eth[1].mac txPk:count 197
attr interpolationmode none
attr source packetSentToLower
attr title "packets transmitted, count"
scalar DynamicTest.RA.eth[1].mac txPk:sum(packetBytes) 16996
attr interpolationmode none
attr source packetSentToLower
attr title "packets transmitted, sum(packetBytes)"
scalar DynamicTest.RA.eth[1].mac packetReceivedFromUpper:count 197
attr interpolationmode none
attr source packetReceivedFromUpper
attr title "packet bytes from higher layer, count"
scalar DynamicTest.RA.eth[1].mac packetReceivedFromUpper:sum(packetBytes) 16996
attr interpolationmode none
attr source packetReceivedFromUpper
attr title "packet bytes from higher layer, sum(packetBytes)"
scalar DynamicTest.RA.eth[1].mac passedUpPk:count 200
attr interpolationmode none
attr source packetSentToUpper
attr title "packets passed to higher layer, count"
scalar DynamicTest.RA.eth[1].mac passedUpPk:sum(packetBytes) 17174
attr interpolationmode none
attr source packetSentToUpper
attr title "packets passed to higher layer, sum(packetBytes)"
scalar DynamicTest.RA.eth[1].mac packetDropIncorrectlyReceived:count 0
attr interpolationmode none
attr source packetDropReasonIsIncorrectlyReceived(packetDropped)
attr title "packet drop: incorrectly received, count"
scalar DynamicTest.RA.eth[1].mac packetDropIncorrectlyReceived:sum(packetBytes) 0
attr interpolationmode none
attr source packetDropReasonIsIncorrectlyReceived(packetDropped)
attr title "packet drop: incorrectly received, sum(packetBytes)"
scalar DynamicTest.RA.eth[1].mac packetDropInterfaceDown:count 0
attr interpolationmode none
attr source packetDropReasonIsInterfaceDown(packetDropped)
attr title "packet drop: interface down, count"
scalar DynamicTest.RA.eth[1].mac packetDropInterfaceDown:sum(packetBytes) 0
attr interpolationmode none
attr source packetDropReasonIsInterfaceDown(packetDropped)
attr title "packet drop: interface down, sum(packetBytes)"
scalar DynamicTest.RA.eth[1].mac packetDropNotAddressedToUs:count 0
attr interpolationmode none
attr source packetDropReasonIsNotAddressedToUs(packetDropped)
attr title "packet drop: not addressed to us, count"
scalar DynamicTest.RA.eth[1].mac packetDropNotAddressedToUs:sum(packetBytes) 0
attr interpolationmode none
attr source packetDropReasonIsNotAddressedToUs(packetDropped)
attr title "packet drop: not addressed to us, sum(packetBytes)"
scalar DynamicTest.RA.eth[1].mac rxPausePkUnits:count 0
attr interpolationmode none
attr title "pause units received, count"
scalar DynamicTest.RA.eth[1].mac rxPausePkUnits:sum 0
attr interpolationmode none
attr title "pause units received, sum"
scalar DynamicTest.RA.eth[1].mac txPausePkUnits:count 0
attr interpolationmode none
attr title "pause units sent, count"
scalar DynamicTest.RA.eth[1].mac txPausePkUnits:sum 0
attr interpolationmode none
attr title "pause units sent, sum"
scalar DynamicTest.RA.eth[1].mac rxPkOk:count 200
attr interpolationmode none
attr source rxPkOk
attr title "packets received OK, count"
scalar DynamicTest.RA.eth[1].mac rxPkOk:sum(packetBytes) 17174
attr interpolationmode none
attr source rxPkOk
attr title "packets received OK, sum(packetBytes)"
scalar DynamicTest.RA.eth[1].encap pauseSent:count 0
attr title "pause sent, count"
scalar DynamicTest.RA.eth[1].encap pauseSent:sum 0
attr title "pause sent, sum"
scalar DynamicTest.RA.eth[1].encap decapPk:count 200
attr interpolationmode none
attr source decapPk
attr title "packets decapsulated, count"
scalar DynamicTest.RA.eth[1].encap decapPk:sum(packetBytes) 13574
attr interpolationmode none
attr source decapPk
attr title "packets decapsulated, sum(packetBytes)"
scalar DynamicTest.RA.eth[1].encap encapPk:count 197
attr interpolationmode none
attr source encapPk
attr title "packets encapsulated, count"
scalar DynamicTest.RA.eth[1].encap encapPk:sum(packetBytes) 13396
attr interpolationmode none
attr source encapPk
attr title "packets encapsulated, sum(packetBytes)"
scalar DynamicTest.RA.eth[2].mac "simulated time" 100.0069209594
scalar DynamicTest.RA.eth[2].mac full-duplex 1
scalar DynamicTest.RA.eth[2].mac "frames/sec sent" 1.3099093417062
scalar DynamicTest.RA.eth[2].mac "frames/sec rcvd" 1.1899176462828
scalar DynamicTest.RA.eth[2].mac "bits/sec sent" 991.45138205234
scalar DynamicTest.RA.eth[2].mac "bits/sec rcvd" 826.6627870041
scalar DynamicTest.RA.eth[2].mac "rx channel idle (%)" 100
scalar DynamicTest.RA.eth[2].mac "rx channel utilization (%)" 0
scalar DynamicTest.RA.eth[2].mac txPk:count 131
attr interpolationmode none
attr source packetSentToLower
attr title "packets transmitted, count"
scalar DynamicTest.RA.eth[2].mac txPk:sum(packetBytes) 12394
attr interpolationmode none
attr source packetSentToLower
attr title "packets transmitted, sum(packetBytes)"
scalar DynamicTest.RA.eth[2].mac packetReceivedFromUpper:count 131
attr interpolationmode none
attr source packetReceivedFromUpper
attr title "packet bytes from higher layer, count"
scalar DynamicTest.RA.eth[2].mac packetReceivedFromUpper:sum(packetBytes) 12394
attr interpolationmode none
attr source packetReceivedFromUpper
attr title "packet bytes from higher layer, sum(packetBytes)"
scalar DynamicTest.RA.eth[2].mac passedUpPk:count 119
attr interpolationmode none
attr source packetSentToUpper
attr title "packets passed to higher layer, count"
scalar DynamicTest.RA.eth[2].mac passedUpPk:sum(packetBytes) 10334
attr interpolationmode none
attr source packetSentToUpper
attr title "packets passed to higher layer, sum(packetBytes)"
scalar DynamicTest.RA.eth[2].mac packetDropIncorrectlyReceived:count 0
attr interpolationmode none
attr source packetDropReasonIsIncorrectlyReceived(packetDropped)
attr title "packet drop: incorrectly received, count"
scalar DynamicTest.RA.eth[2].mac packetDropIncorrectlyReceived:sum(packetBytes) 0
attr interpolationmode none
attr source packetDropReasonIsIncorrectlyReceived(packetDropped)
attr title "packet drop: incorrectly received, sum(packetBytes)"
scalar DynamicTest.RA.eth[2].mac packetDropInterfaceDown:count 0
attr interpolationmode none
attr source packetDropReasonIsInterfaceDown(packetDropped)
attr title "packet drop: interface down, count"
scalar DynamicTest.RA.eth[2].mac packetDropInterfaceDown:sum(packetBytes) 0
attr interpolationmode none
attr source packetDropReasonIsInterfaceDown(packetDropped)
attr title "packet drop: interface down, sum(packetBytes)"
scalar DynamicTest.RA.eth[2].mac packetDropNotAddressedToUs:count 0
attr interpolationmode none
attr source packetDropReasonIsNotAddressedToUs(packetDropped)
attr title "packet drop: not addressed to us, count"
scalar DynamicTest.RA.eth[2].mac packetDropNotAddressedToUs:sum(packetBytes) 0
attr interpolationmode none
attr source packetDropReasonIsNotAddressedToUs(packetDropped)
attr title "packet drop: not addressed to us, sum(packetBytes)"
scalar DynamicTest.RA.eth[2].mac rxPausePkUnits:count 0
attr interpolationmode none
attr title "pause units received, count"
scalar DynamicTest.RA.eth[2].mac rxPausePkUnits:sum 0
attr interpolationmode none
attr title "pause units received, sum"
scalar DynamicTest.RA.eth[2].mac txPausePkUnits:count 0
attr interpolationmode none
attr title "pause units sent, count"
scalar DynamicTest.RA.eth[2].mac txPausePkUnits:sum 0
attr interpolationmode none
attr title "pause units sent, sum"
scalar DynamicTest.RA.eth[2].mac rxPkOk:count 119
attr interpolationmode none
attr source rxPkOk
attr title "packets received OK, count"
scalar DynamicTest.RA.eth[2].mac rxPkOk:sum(packetBytes) 10334
attr interpolationmode none
attr source rxPkOk
attr title "packets received OK, sum(packetBytes)"
scalar DynamicTest.RA.eth[2].encap pauseSent:count 0
attr title "pause sent, count"
scalar DynamicTest.RA.eth[2].encap pauseSent:sum 0
attr title "pause sent, sum"
scalar DynamicTest.RA.eth[2].encap decapPk:count 119
attr interpolationmode none
attr source decapPk
attr title "packets decapsulated, count"
scalar DynamicTest.RA.eth[2].encap decapPk:sum(packetBytes) 8192
attr interpolationmode none
attr source decapPk
attr title "packets decapsulated, sum(packetBytes)"
scalar DynamicTest.RA.eth[2].encap encapPk:count 131
attr interpolationmode none
attr source encapPk
attr title "packets encapsulated, count"
scalar DynamicTest.RA.eth[2].encap encapPk:sum(packetBytes) 10000
attr interpolationmode none
attr source encapPk
attr title "packets encapsulated, sum(packetBytes)"
scalar DynamicTest.RA.ipv4.ip packetDropAddressResolutionFailed:count 0
attr interpolationmode none
attr source packetDropReasonIsAddressResolutionFailed(packetDropped)
attr title "packet drop: address resolution failed, count"
scalar DynamicTest.RA.ipv4.ip packetDropAddressResolutionFailed:sum(packetBytes) 0
attr interpolationmode none
attr source packetDropReasonIsAddressResolutionFailed(packetDropped)
attr title "packet drop: address resolution failed, sum(packetBytes)"
scalar DynamicTest.RA.ipv4.ip packetDropHopLimitReached:count 0
attr interpolationmode none
attr source packetDropReasonIsHopLimitReached(packetDropped)
attr title "packet drop: hop limit reached, count"
scalar DynamicTest.RA.ipv4.ip packetDropHopLimitReached:sum(packetBytes) 0
attr interpolationmode none
attr source packetDropReasonIsHopLimitReached(packetDropped)
attr title "packet drop: hop limit reached, sum(packetBytes)"
scalar DynamicTest.RA.ipv4.ip packetDropForwardingDisabled:count 0
attr interpolationmode none
attr source packetDropReasonIsForwardingDisabled(packetDropped)
attr title "packet drop: forwarding disabled, count"
scalar DynamicTest.RA.ipv4.ip packetDropForwardingDisabled:sum(packetBytes) 0
attr interpolationmode none
attr source packetDropReasonIsForwardingDisabled(packetDropped)
attr title "packet drop: forwarding disabled, sum(packetBytes)"
scalar DynamicTest.RA.ipv4.ip packetDropNoInterfaceFound:count 0
attr interpolationmode none
attr source packetDropReasonIsNoInterfaceFound(packetDropped)
attr title "packet drop: no interface found, count"
scalar DynamicTest.RA.ipv4.ip packetDropNoInterfaceFound:sum(packetBytes) 0
attr interpolationmode none
attr source packetDropReasonIsNoInterfaceFound(packetDropped)
attr title "packet drop: no interface found, sum(packetBytes)"
scalar DynamicTest.RA.ipv4.ip packetDropNoRouteFound:count 0
attr interpolationmode none
attr source packetDropReasonIsNoRouteFound(packetDropped)
attr title "packet drop: no route found, count"
scalar DynamicTest.RA.ipv4.ip packetDropNoRouteFound:sum(packetBytes) 0
attr interpolationmode none
attr source packetDropReasonIsNoRouteFound(packetDropped)
attr title "packet drop: no route found, sum(packetBytes)"
scalar DynamicTest.RA.ipv4.ip packetDropUndefined:count 0
attr interpolationmode none
attr source packetDropReasonIsUndefined(packetDropped)
attr title "packet drop: undefined, count"
scalar DynamicTest.RA.ipv4.ip packetDropUndefined:sum(packetBytes) 0
attr interpolationmode none
attr source packetDropReasonIsUndefined(packetDropped)
attr title "packet drop: undefined, sum(packetBytes)"
scalar DynamicTest.RA.ipv4.arp arpReplySent:count 4
attr source arpReplySent
attr title "ARP replies sent, count"
scalar DynamicTest.RA.ipv4.arp arpReplySent:sum(packetBytes) 112
attr source arpReplySent
attr title "ARP replies sent, sum(packetBytes)"
scalar DynamicTest.RA.ipv4.arp arpRequestSent:count 3
attr source arpRequestSent
attr title "ARP request sent, count"
scalar DynamicTest.RA.ipv4.arp arpRequestSent:sum(packetBytes) 84
attr source arpRequestSent
attr title "ARP request sent, sum(packetBytes)"
scalar DynamicTest.RA.ipv4.arp arpResolutionFailed:count 0
attr title "ARP failed resolutions, count"
scalar DynamicTest.RA.ipv4.arp arpResolutionCompleted:count 7
attr title "ARP completed resolutions, count"
scalar DynamicTest.RA.ipv4.arp arpResolutionInitiated:count 3
attr title "ARP initiated resolutions, count"
scalar DynamicTest.RU.lo[0].lo rcvdPkFromHl:count 0
attr interpolationmode none
attr source packetReceivedFromUpper
attr title "packets received from higher layer, count"
scalar DynamicTest.RU.lo[0].lo rcvdPkFromHl:sum(packetBytes) 0
attr interpolationmode none
attr source packetReceivedFromUpper
attr title "packets received from higher layer, sum(packetBytes)"
scalar DynamicTest.RU.lo[0].lo passedUpPk:count 0
attr interpolationmode none
attr source packetSentToUpper
attr title "packets passed to higher layer, count"
scalar DynamicTest.RU.lo[0].lo passedUpPk:sum(packetBytes) 0
attr interpolationmode none
attr source packetSentToUpper
attr title "packets passed to higher layer, sum(packetBytes)"
scalar DynamicTest.RU.eth[0].mac "simulated time" 100.0069209594
scalar DynamicTest.RU.eth[0].mac full-duplex 1
scalar DynamicTest.RU.eth[0].mac "frames/sec sent" 1.1899176462828
scalar DynamicTest.RU.eth[0].mac "frames/sec rcvd" 1.3099093417062
scalar DynamicTest.RU.eth[0].mac "bits/sec sent" 826.6627870041
scalar DynamicTest.RU.eth[0].mac "bits/sec rcvd" 991.45138205234
scalar DynamicTest.RU.eth[0].mac "rx channel idle (%)" 100
scalar DynamicTest.RU.eth[0].mac "rx channel utilization (%)" 0
scalar DynamicTest.RU.eth[0].mac txPk:count 119
attr interpolationmode none
attr source packetSentToLower
attr title "packets transmitted, count"
scalar DynamicTest.RU.eth[0].mac txPk:sum(packetBytes) 10334
attr interpolationmode none
attr source packetSentToLower
attr title "packets transmitted, sum(packetBytes)"
scalar DynamicTest.RU.eth[0].mac packetReceivedFromUpper:count 119
attr interpolationmode none
attr source packetReceivedFromUpper
attr title "packet bytes from higher layer, count"
scalar DynamicTest.RU.eth[0].mac packetReceivedFromUpper:sum(packetBytes) 10334
attr interpolationmode none
attr source packetReceivedFromUpper
attr title "packet bytes from higher layer, sum(packetBytes)"
scalar DynamicTest.RU.eth[0].mac passedUpPk:count 131
attr interpolationmode none
attr source packetSentToUpper
attr title "packets passed to higher layer, count"
scalar DynamicTest.RU.eth[0].mac passedUpPk:sum(packetBytes) 12394
attr interpolationmode none
attr source packetSentToUpper
attr title "packets passed to higher layer, sum(packetBytes)"
scalar DynamicTest.RU.eth[0].mac packetDropIncorrectlyReceived:count 0
attr interpolationmode none
attr source packetDropReasonIsIncorrectlyReceived(packetDropped)
attr title "packet drop: incorrectly received, count"
scalar DynamicTest.RU.eth[0].mac packetDropIncorrectlyReceived:sum(packetBytes) 0
attr interpolationmode none
attr source packetDropReasonIsIncorrectlyReceived(packetDropped)
attr title "packet drop: incorrectly received, sum(packetBytes)"
scalar DynamicTest.RU.eth[0].mac packetDropInterfaceDown:count 0
attr interpolationmode none
attr source packetDropReasonIsInterfaceDown(packetDropped)
attr title "packet drop: interface down, count"
scalar DynamicTest.RU.eth[0].mac packetDropInterfaceDown:sum(packetBytes) 0
attr interpolationmode none
attr source packetDropReasonIsInterfaceDown(packetDropped)
attr title "packet drop: interface down, sum(packetBytes)"
scalar DynamicTest.RU.eth[0].mac packetDropNotAddressedToUs:count 0
attr interpolationmode none
attr source packetDropReasonIsNotAddressedToUs(packetDropped)
attr title "packet drop: not addressed to us, count"
scalar DynamicTest.RU.eth[0].mac packetDropNotAddressedToUs:sum(packetBytes) 0
attr interpolationmode none
attr source packetDropReasonIsNotAddressedToUs(packetDropped)
attr title "packet drop: not addressed to us, sum(packetBytes)"
scalar DynamicTest.RU.eth[0].mac rxPausePkUnits:count 0
attr interpolationmode none
attr title "pause units received, count"
scalar DynamicTest.RU.eth[0].mac rxPausePkUnits:sum 0
attr interpolationmode none
attr title "pause units received, sum"
scalar DynamicTest.RU.eth[0].mac txPausePkUnits:count 0
attr interpolationmode none
attr title "pause units sent, count"
scalar DynamicTest.RU.eth[0].mac txPausePkUnits:sum 0
attr interpolationmode none
attr title "pause units sent, sum"
scalar DynamicTest.RU.eth[0].mac rxPkOk:count 131
attr interpolationmode none
attr source rxPkOk
attr title "packets received OK, count"
scalar DynamicTest.RU.eth[0].mac rxPkOk:sum(packetBytes) 12394
attr interpolationmode none
attr source rxPkOk
attr title "packets received OK, sum(packetBytes)"
scalar DynamicTest.RU.eth[0].encap pauseSent:count 0
attr title "pause sent, count"
scalar DynamicTest.RU.eth[0].encap pauseSent:sum 0
attr title "pause sent, sum"
scalar DynamicTest.RU.eth[0].encap decapPk:count 131
attr interpolationmode none
attr source decapPk
attr title "packets decapsulated, count"
scalar DynamicTest.RU.eth[0].encap decapPk:sum(packetBytes) 10036
attr interpolationmode none
attr source decapPk
attr title "packets decapsulated, sum(packetBytes)"
scalar DynamicTest.RU.eth[0].encap encapPk:count 119
attr interpolationmode none
attr source encapPk
attr title "packets encapsulated, count"
scalar DynamicTest.RU.eth[0].encap encapPk:sum(packetBytes) 8156
attr interpolationmode none
attr source encapPk
attr title "packets encapsulated, sum(packetBytes)"
scalar DynamicTest.RU.eth[1].mac "simulated time" 100.0069209594
scalar DynamicTest.RU.eth[1].mac full-duplex 1
scalar DynamicTest.RU.eth[1].mac "frames/sec sent" 0.9999307951956
scalar DynamicTest.RU.eth[1].mac "frames/sec rcvd" 0
scalar DynamicTest.RU.eth[1].mac "bits/sec sent" 655.95460164831
scalar DynamicTest.RU.eth[1].mac "bits/sec rcvd" 0
scalar DynamicTest.RU.eth[1].mac "rx channel idle (%)" 100
scalar DynamicTest.RU.eth[1].mac "rx channel utilization (%)" 0
scalar DynamicTest.RU.eth[1].mac txPk:count 100
attr interpolationmode none
attr source packetSentToLower
attr title "packets transmitted, count"
scalar DynamicTest.RU.eth[1].mac txPk:sum(packetBytes) 8200
attr interpolationmode none
attr source packetSentToLower
attr title "packets transmitted, sum(packetBytes)"
scalar DynamicTest.RU.eth[1].mac packetReceivedFromUpper:count 100
attr interpolationmode none
attr source packetReceivedFromUpper
attr title "packet bytes from higher layer, count"
scalar DynamicTest.RU.eth[1].mac packetReceivedFromUpper:sum(packetBytes) 8200
attr interpolationmode none
attr source packetReceivedFromUpper
attr title "packet bytes from higher layer, sum(packetBytes)"
scalar DynamicTest.RU.eth[1].mac passedUpPk:count 0
attr interpolationmode none
attr source packetSentToUpper
attr title "packets passed to higher layer, count"
scalar DynamicTest.RU.eth[1].mac passedUpPk:sum(packetBytes) 0
attr interpolationmode none
attr source packetSentToUpper
attr title "packets passed to higher layer, sum(packetBytes)"
scalar DynamicTest.RU.eth[1].mac packetDropIncorrectlyReceived:count 0
attr interpolationmode none
attr source packetDropReasonIsIncorrectlyReceived(packetDropped)
attr title "packet drop: incorrectly received, count"
scalar DynamicTest.RU.eth[1].mac packetDropIncorrectlyReceived:sum(packetBytes) 0
attr interpolationmode none
attr source packetDropReasonIsIncorrectlyReceived(packetDropped)
attr title "packet drop: incorrectly received, sum(packetBytes)"
scalar DynamicTest.RU.eth[1].mac packetDropInterfaceDown:count 0
attr interpolationmode none
attr source packetDropReasonIsInterfaceDown(packetDropped)
attr title "packet drop: interface down, count"
scalar DynamicTest.RU.eth[1].mac packetDropInterfaceDown:sum(packetBytes) 0
attr interpolationmode none
attr source packetDropReasonIsInterfaceDown(packetDropped)
attr title "packet drop: interface down, sum(packetBytes)"
scalar DynamicTest.RU.eth[1].mac packetDropNotAddressedToUs:count 0
attr interpolationmode none
attr source packetDropReasonIsNotAddressedToUs(packetDropped)
attr title "packet drop: not addressed to us, count"
scalar DynamicTest.RU.eth[1].mac packetDropNotAddressedToUs:sum(packetBytes) 0
attr interpolationmode none
attr source packetDropReasonIsNotAddressedToUs(packetDropped)
attr title "packet drop: not addressed to us, sum(packetBytes)"
scalar DynamicTest.RU.eth[1].mac rxPausePkUnits:count 0
attr interpolationmode none
attr title "pause units received, count"
scalar DynamicTest.RU.eth[1].mac rxPausePkUnits:sum 0
attr interpolationmode none
attr title "pause units received, sum"
scalar DynamicTest.RU.eth[1].mac txPausePkUnits:count 0
attr interpolationmode none
attr title "pause units sent, count"
scalar DynamicTest.RU.eth[1].mac txPausePkUnits:sum 0
attr interpolationmode none
attr title "pause units sent, sum"
scalar DynamicTest.RU.eth[1].mac rxPkOk:count 0
attr interpolationmode none
attr source rxPkOk
attr title "packets received OK, count"
scalar DynamicTest.RU.eth[1].mac rxPkOk:sum(packetBytes) 0
attr interpolationmode none
attr source rxPkOk
attr title "packets received OK, sum(packetBytes)"
scalar DynamicTest.RU.eth[1].encap pauseSent:count 0
attr title "pause sent, count"
scalar DynamicTest.RU.eth[1].encap pauseSent:sum 0
attr title "pause sent, sum"
scalar DynamicTest.RU.eth[1].encap decapPk:count 0
attr interpolationmode none
attr source decapPk
attr title "packets decapsulated, count"
scalar DynamicTest.RU.eth[1].encap decapPk:sum(packetBytes) 0
attr interpolationmode none
attr source decapPk
attr title "packets decapsulated, sum(packetBytes)"
scalar DynamicTest.RU.eth[1].encap encapPk:count 100
attr interpolationmode none
attr source encapPk
attr title "packets encapsulated, count"
scalar DynamicTest.RU.eth[1].encap encapPk:sum(packetBytes) 6400
attr interpolationmode none
attr source encapPk
attr title "packets encapsulated, sum(packetBytes)"
scalar DynamicTest.RU.ipv4.ip packetDropAddressResolutionFailed:count 0
attr interpolationmode none
attr source packetDropReasonIsAddressResolutionFailed(packetDropped)
attr title "packet drop: address resolution failed, count"
scalar DynamicTest.RU.ipv4.ip packetDropAddressResolutionFailed:sum(packetBytes) 0
attr interpolationmode none
attr source packetDropReasonIsAddressResolutionFailed(packetDropped)
attr title "packet drop: address resolution failed, sum(packetBytes)"
scalar DynamicTest.RU.ipv4.ip packetDropHopLimitReached:count 0
attr interpolationmode none
attr source packetDropReasonIsHopLimitReached(packetDropped)
attr title "packet drop: hop limit reached, count"
scalar DynamicTest.RU.ipv4.ip packetDropHopLimitReached:sum(packetBytes) 0
attr interpolationmode none
attr source packetDropReasonIsHopLimitReached(packetDropped)
attr title "packet drop: hop limit reached, sum(packetBytes)"
scalar DynamicTest.RU.ipv4.ip packetDropForwardingDisabled:count 0
attr interpolationmode none
attr source packetDropReasonIsForwardingDisabled(packetDropped)
attr title "packet drop: forwarding disabled, count"
scalar DynamicTest.RU.ipv4.ip packetDropForwardingDisabled:sum(packetBytes) 0
attr interpolationmode none
attr source packetDropReasonIsForwardingDisabled(packetDropped)
attr title "packet drop: forwarding disabled, sum(packetBytes)"
scalar DynamicTest.RU.ipv4.ip packetDropNoInterfaceFound:count 0
attr interpolationmode none
attr source packetDropReasonIsNoInterfaceFound(packetDropped)
attr title "packet drop: no interface found, count"
scalar DynamicTest.RU.ipv4.ip packetDropNoInterfaceFound:sum(packetBytes) 0
attr interpolationmode none
attr source packetDropReasonIsNoInterfaceFound(packetDropped)
attr title "packet drop: no interface found, sum(packetBytes)"
scalar DynamicTest.RU.ipv4.ip packetDropNoRouteFound:count 0
attr interpolationmode none
attr source packetDropReasonIsNoRouteFound(packetDropped)
attr title "packet drop: no route found, count"
scalar DynamicTest.RU.ipv4.ip packetDropNoRouteFound:sum(packetBytes) 0
attr interpolationmode none
attr source packetDropReasonIsNoRouteFound(packetDropped)
attr title "packet drop: no route found, sum(packetBytes)"
scalar DynamicTest.RU.ipv4.ip packetDropUndefined:count 0
attr interpolationmode none
attr source packetDropReasonIsUndefined(packetDropped)
attr title "packet drop: undefined, count"
scalar DynamicTest.RU.ipv4.ip packetDropUndefined:sum(packetBytes) 0
attr interpolationmode none
attr source packetDropReasonIsUndefined(packetDropped)
attr title "packet drop: undefined, sum(packetBytes)"
scalar DynamicTest.RU.ipv4.arp arpReplySent:count 1
attr source arpReplySent
attr title "ARP replies sent, count"
scalar DynamicTest.RU.ipv4.arp arpReplySent:sum(packetBytes) 28
attr source arpReplySent
attr title "ARP replies sent, sum(packetBytes)"
scalar DynamicTest.RU.ipv4.arp arpRequestSent:count 1
attr source arpRequestSent
attr title "ARP request sent, count"
scalar DynamicTest.RU.ipv4.arp arpRequestSent:sum(packetBytes) 28
attr source arpRequestSent
attr title "ARP request sent, sum(packetBytes)"
scalar DynamicTest.RU.ipv4.arp arpResolutionFailed:count 0
attr title "ARP failed resolutions, count"
scalar DynamicTest.RU.ipv4.arp arpResolutionCompleted:count 2
attr title "ARP completed resolutions, count"
scalar DynamicTest.RU.ipv4.arp arpResolutionInitiated:count 1
attr title "ARP initiated resolutions, count"
scalar DynamicTest.RB.lo[0].lo rcvdPkFromHl:count 0
attr interpolationmode none
attr source packetReceivedFromUpper
attr title "packets received from higher layer, count"
scalar DynamicTest.RB.lo[0].lo rcvdPkFromHl:sum(packetBytes) 0
attr interpolationmode none
attr source packetReceivedFromUpper
attr title "packets received from higher layer, sum(packetBytes)"
scalar DynamicTest.RB.lo[0].lo passedUpPk:count 0
attr interpolationmode none
attr source packetSentToUpper
attr title "packets passed to higher layer, count"
scalar DynamicTest.RB.lo[0].lo passedUpPk:sum(packetBytes) 0
attr interpolationmode none
attr source packetSentToUpper
attr title "packets passed to higher layer, sum(packetBytes)"
scalar DynamicTest.RB.eth[0].mac "simulated time" 100.0069209594
scalar DynamicTest.RB.eth[0].mac full-duplex 1
scalar DynamicTest.RB.eth[0].mac "frames/sec sent" 1.9398657426795
scalar DynamicTest.RB.eth[0].mac "frames/sec rcvd" 1.9998615903912
scalar DynamicTest.RB.eth[0].mac "bits/sec sent" 1320.5486053671
scalar DynamicTest.RB.eth[0].mac "bits/sec rcvd" 1382.9442869873
scalar DynamicTest.RB.eth[0].mac "rx channel idle (%)" 100
scalar DynamicTest.RB.eth[0].mac "rx channel utilization (%)" 0
scalar DynamicTest.RB.eth[0].mac txPk:count 194
attr interpolationmode none
attr source packetSentToLower
attr title "packets transmitted, count"
scalar DynamicTest.RB.eth[0].mac txPk:sum(packetBytes) 16508
attr interpolationmode none
attr source packetSentToLower
attr title "packets transmitted, sum(packetBytes)"
scalar DynamicTest.RB.eth[0].mac packetReceivedFromUpper:count 194
attr interpolationmode none
attr source packetReceivedFromUpper
attr title "packet bytes from higher layer, count"
scalar DynamicTest.RB.eth[0].mac packetReceivedFromUpper:sum(packetBytes) 16508
attr interpolationmode none
attr source packetReceivedFromUpper
attr title "packet bytes from higher layer, sum(packetBytes)"
scalar DynamicTest.RB.eth[0].mac passedUpPk:count 200
attr interpolationmode none
attr source packetSentToUpper
attr title "packets passed to higher layer, count"
scalar DynamicTest.RB.eth[0].mac passedUpPk:sum(packetBytes) 17288
attr interpolationmode none
attr source packetSentToUpper
attr title "packets passed to higher layer, sum(packetBytes)"
scalar DynamicTest.RB.eth[0].mac packetDropIncorrectlyReceived:count 0
attr interpolationmode none
attr source packetDropReasonIsIncorrectlyReceived(packetDropped)
attr title "packet drop: incorrectly received, count"
scalar DynamicTest.RB.eth[0].mac packetDropIncorrectlyReceived:sum(packetBytes) 0
attr interpolationmode none
attr source packetDropReasonIsIncorrectlyReceived(packetDropped)
attr title "packet drop: incorrectly received, sum(packetBytes)"
scalar DynamicTest.RB.eth[0].mac packetDropInterfaceDown:count 0
attr interpolationmode none
attr source packetDropReasonIsInterfaceDown(packetDropped)
attr title "packet drop: interface down, count"
scalar DynamicTest.RB.eth[0].mac packetDropInterfaceDown:sum(packetBytes) 0
attr interpolationmode none
attr source packetDropReasonIsInterfaceDown(packetDropped)
attr title "packet drop: interface down, sum(packetBytes)"
scalar DynamicTest.RB.eth[0].mac packetDropNotAddressedToUs:count 0
attr interpolationmode none
attr source packetDropReasonIsNotAddressedToUs(packetDropped)
attr title "packet drop: not addressed to us, count"
scalar DynamicTest.RB.eth[0].mac packetDropNotAddressedToUs:sum(packetBytes) 0
attr interpolationmode none
attr source packetDropReasonIsNotAddressedToUs(packetDropped)
attr title "packet drop: not addressed to us, sum(packetBytes)"
scalar DynamicTest.RB.eth[0].mac rxPausePkUnits:count 0
attr interpolationmode none
attr title "pause units received, count"
scalar DynamicTest.RB.eth[0].mac rxPausePkUnits:sum 0
attr interpolationmode none
attr title "pause units received, sum"
scalar DynamicTest.RB.eth[0].mac txPausePkUnits:count 0
attr interpolationmode none
attr title "pause units sent, count"
scalar DynamicTest.RB.eth[0].mac txPausePkUnits:sum 0
attr interpolationmode none
attr title "pause units sent, sum"
scalar DynamicTest.RB.eth[0].mac rxPkOk:count 200
attr interpolationmode none
attr source rxPkOk
attr title "packets received OK, count"
scalar DynamicTest.RB.eth[0].mac rxPkOk:sum(packetBytes) 17288
attr interpolationmode none
attr source rxPkOk
attr title "packets received OK, sum(packetBytes)"
scalar DynamicTest.RB.eth[0].encap pauseSent:count 0
attr title "pause sent, count"
scalar DynamicTest.RB.eth[0].encap pauseSent:sum 0
attr title "pause sent, sum"
scalar DynamicTest.RB.eth[0].encap decapPk:count 200
attr interpolationmode none
attr source decapPk
attr title "packets decapsulated, count"
scalar DynamicTest.RB.eth[0].encap decapPk:sum(packetBytes) 13688
attr interpolationmode none
attr source decapPk
attr title "packets decapsulated, sum(packetBytes)"
scalar DynamicTest.RB.eth[0].encap encapPk:count 194
attr interpolationmode none
attr source encapPk
attr title "packets encapsulated, count"
scalar DynamicTest.RB.eth[0].encap encapPk:sum(packetBytes) 12980
attr interpolationmode none
attr source encapPk
attr title "packets encapsulated, sum(packetBytes)"
scalar DynamicTest.RB.eth[1].mac "simulated time" 100.0069209594
scalar DynamicTest.RB.eth[1].mac full-duplex 1
scalar DynamicTest.RB.eth[1].mac "frames/sec sent" 2.0098608983431
scalar DynamicTest.RB.eth[1].mac "frames/sec rcvd" 1.9198671267755
scalar DynamicTest.RB.eth[1].mac "bits/sec sent" 1387.9039437315
scalar DynamicTest.RB.eth[1].mac "bits/sec rcvd" 1320.7085942943
scalar DynamicTest.RB.eth[1].mac "rx channel idle (%)" 100
scalar DynamicTest.RB.eth[1].mac "rx channel utilization (%)" 0
scalar DynamicTest.RB.eth[1].mac txPk:count 201
attr interpolationmode none
attr source packetSentToLower
attr title "packets transmitted, count"
scalar DynamicTest.RB.eth[1].mac txPk:sum(packetBytes) 17350
attr interpolationmode none
attr source packetSentToLower
attr title "packets transmitted, sum(packetBytes)"
scalar DynamicTest.RB.eth[1].mac packetReceivedFromUpper:count 201
attr interpolationmode none
attr source packetReceivedFromUpper
attr title "packet bytes from higher layer, count"
scalar DynamicTest.RB.eth[1].mac packetReceivedFromUpper:sum(packetBytes) 17350
attr interpolationmode none
attr source packetReceivedFromUpper
attr title "packet bytes from higher layer, sum(packetBytes)"
scalar DynamicTest.RB.eth[1].mac passedUpPk:count 192
attr interpolationmode none
attr source packetSentToUpper
attr title "packets passed to higher layer, count"
scalar DynamicTest.RB.eth[1].mac passedUpPk:sum(packetBytes) 16510
attr interpolationmode none
attr source packetSentToUpper
attr title "packets passed to higher layer, sum(packetBytes)"
scalar DynamicTest.RB.eth[1].mac packetDropIncorrectlyReceived:count 0
attr interpolationmode none
attr source packetDropReasonIsIncorrectlyReceived(packetDropped)
attr title "packet drop: incorrectly received, count"
scalar DynamicTest.RB.eth[1].mac packetDropIncorrectlyReceived:sum(packetBytes) 0
attr interpolationmode none
attr source packetDropReasonIsIncorrectlyReceived(packetDropped)
attr title "packet drop: incorrectly received, sum(packetBytes)"
scalar DynamicTest.RB.eth[1].mac packetDropInterfaceDown:count 0
attr interpolationmode none
attr source packetDropReasonIsInterfaceDown(packetDropped)
attr title "packet drop: interface down, count"
scalar DynamicTest.RB.eth[1].mac packetDropInterfaceDown:sum(packetBytes) 0
attr interpolationmode none
attr source packetDropReasonIsInterfaceDown(packetDropped)
attr title "packet drop: interface down, sum(packetBytes)"
scalar DynamicTest.RB.eth[1].mac packetDropNotAddressedToUs:count 0
attr interpolationmode none
attr source packetDropReasonIsNotAddressedToUs(packetDropped)
attr title "packet drop: not addressed to us, count"
scalar DynamicTest.RB.eth[1].mac packetDropNotAddressedToUs:sum(packetBytes) 0
attr interpolationmode none
attr source packetDropReasonIsNotAddressedToUs(packetDropped)
attr title "packet drop: not addressed to us, sum(packetBytes)"
scalar DynamicTest.RB.eth[1].mac rxPausePkUnits:count 0
attr interpolationmode none
attr title "pause units received, count"
scalar DynamicTest.RB.eth[1].mac rxPausePkUnits:sum 0
attr interpolationmode none
attr title "pause units received, sum"
scalar DynamicTest.RB.eth[1].mac txPausePkUnits:count 0
attr interpolationmode none
attr title "pause units sent, count"
scalar DynamicTest.RB.eth[1].mac txPausePkUnits:sum 0
attr interpolationmode none
attr title "pause units sent, sum"
scalar DynamicTest.RB.eth[1].mac rxPkOk:count 192
attr interpolationmode none
attr source rxPkOk
attr title "packets received OK, count"
scalar DynamicTest.RB.eth[1].mac rxPkOk:sum(packetBytes) 16510
attr interpolationmode none
attr source rxPkOk
attr title "packets received OK, sum(packetBytes)"
scalar DynamicTest.RB.eth[1].encap pauseSent:count 0
attr title "pause sent, count"
scalar DynamicTest.RB.eth[1].encap pauseSent:sum 0
attr title "pause sent, sum"
scalar DynamicTest.RB.eth[1].encap decapPk:count 192
attr interpolationmode none
attr source decapPk
attr title "packets decapsulated, count"
scalar DynamicTest.RB.eth[1].encap decapPk:sum(packetBytes) 13054
attr interpolationmode none
attr source decapPk
attr title "packets decapsulated, sum(packetBytes)"
scalar DynamicTest.RB.eth[1].encap encapPk:count 201
attr interpolationmode none
attr source encapPk
attr title "packets encapsulated, count"
scalar DynamicTest.RB.eth[1].encap encapPk:sum(packetBytes) 13672
attr interpolationmode none
attr source encapPk
attr title "packets encapsulated, sum(packetBytes)"
scalar DynamicTest.RB.ipv4.ip packetDropAddressResolutionFailed:count 0
attr interpolationmode none
attr source packetDropReasonIsAddressResolutionFailed(packetDropped)
[...]
attr title "packet drop: no route found, sum(packetBytes)"
scalar DynamicTest.H3.ipv4.ip packetDropUndefined:count 0
attr interpolationmode none
attr source packetDropReasonIsUndefined(packetDropped)
attr title "packet drop: undefined, count"
scalar DynamicTest.H3.ipv4.ip packetDropUndefined:sum(packetBytes) 0
attr interpolationmode none
attr source packetDropReasonIsUndefined(packetDropped)
attr title "packet drop: undefined, sum(packetBytes)"
scalar DynamicTest.H3.ipv4.arp arpReplySent:count 0
attr source arpReplySent
attr title "ARP replies sent, count"
scalar DynamicTest.H3.ipv4.arp arpReplySent:sum(packetBytes) 0
attr source arpReplySent
attr title "ARP replies sent, sum(packetBytes)"
scalar DynamicTest.H3.ipv4.arp arpRequestSent:count 0
attr source arpRequestSent
attr title "ARP request sent, count"
scalar DynamicTest.H3.ipv4.arp arpRequestSent:sum(packetBytes) 0
attr source arpRequestSent
attr title "ARP request sent, sum(packetBytes)"
scalar DynamicTest.H3.ipv4.arp arpResolutionFailed:count 0
attr title "ARP failed resolutions, count"
scalar DynamicTest.H3.ipv4.arp arpResolutionCompleted:count 0
attr title "ARP completed resolutions, count"
scalar DynamicTest.H3.ipv4.arp arpResolutionInitiated:count 0
attr title "ARP initiated resolutions, count"
scalar DynamicTest.H3.udp packetReceived:count 0
attr interpolationmode none
attr source packetReceived
attr title "packets received, count"
scalar DynamicTest.H3.udp packetReceived:sum(packetBytes) 0
attr interpolationmode none
attr source packetReceived
attr title "packets received, sum(packetBytes)"
scalar DynamicTest.H3.udp packetSent:count 0
attr interpolationmode none
attr source packetSent
attr title "packets sent, count"
scalar DynamicTest.H3.udp packetSent:sum(packetBytes) 0
attr interpolationmode none
attr source packetSent
attr title "packets sent, sum(packetBytes)"
scalar DynamicTest.H3.udp passedUpPk:count 0
attr interpolationmode none
attr source packetSentToUpper
attr title "packets passed up, count"
scalar DynamicTest.H3.udp droppedPkWrongPort:count 0
attr interpolationmode none
attr source packetDropReasonIsNoPortFound(packetDropped)
attr title "packets dropped (wrong port), count"
scalar DynamicTest.H3.udp droppedPkBadChecksum:count 0
attr interpolationmode none
attr source packetDropReasonIsIncorrectlyReceived(packetDropped)
attr title "packets dropped (checksum error), count"
scalar DynamicTest.H3.app[0] "packets sent" 0
scalar DynamicTest.H3.app[0] "packets received" 0
scalar DynamicTest.H3.app[0] packetReceived:count 0
attr interpolationmode none
attr source packetReceived
attr title "packets received, count"
scalar DynamicTest.H3.app[0] packetReceived:sum(packetBytes) 0
attr interpolationmode none
attr source packetReceived
attr title "packets received, sum(packetBytes)"
statistic DynamicTest.H3.app[0] rcvdPkLifetime:stats
field count 0
field mean nan
field stddev nan
field min nan
field max nan
field sum 0
field sqrsum 0
attr interpolationmode none
attr source dataAge(packetReceived)
attr title "received packet lifetime, stats"
attr unit s
scalar DynamicTest.H3.app[0] packetSent:count 0
attr interpolationmode none
attr source packetSent
attr title "packets sent, count"
scalar DynamicTest.H3.app[0] packetSent:sum(packetBytes) 0
attr interpolationmode none
attr source packetSent
attr title "packets sent, sum(packetBytes)"
scalar DynamicTest.H3.app[1] echoedPk:count 0
attr interpolationmode none
attr source packetSent
attr title "packets echoed, count"
scalar DynamicTest.H3.app[1] echoedPk:sum(packetBytes) 0
attr interpolationmode none
attr source packetSent
attr title "packets echoed, sum(packetBytes)"
scalar DynamicTest.H3.app[2] "packets sent" 0
scalar DynamicTest.H3.app[2] "packets received" 0
scalar DynamicTest.H3.app[2] packetReceived:count 0
attr interpolationmode none
attr source packetReceived
attr title "packets received, count"
scalar DynamicTest.H3.app[2] packetReceived:sum(packetBytes) 0
attr interpolationmode none
attr source packetReceived
attr title "packets received, sum(packetBytes)"
statistic DynamicTest.H3.app[2] rcvdPkLifetime:stats
field count 0
field mean nan
field stddev nan
field min nan
field max nan
field sum 0
field sqrsum 0
attr interpolationmode none
attr source dataAge(packetReceived)
attr title "received packet lifetime, stats"
attr unit s
scalar DynamicTest.H3.app[2] packetSent:count 0
attr interpolationmode none
attr source packetSent
attr title "packets sent, count"
scalar DynamicTest.H3.app[2] packetSent:sum(packetBytes) 0
attr interpolationmode none
attr source packetSent
attr title "packets sent, sum(packetBytes)"
scalar DynamicTest.H3.app[3] "packets sent" 0
scalar DynamicTest.H3.app[3] "packets received" 0
scalar DynamicTest.H3.app[3] packetReceived:count 0
attr interpolationmode none
attr source packetReceived
attr title "packets received, count"
scalar DynamicTest.H3.app[3] packetReceived:sum(packetBytes) 0
attr interpolationmode none
attr source packetReceived
attr title "packets received, sum(packetBytes)"
statistic DynamicTest.H3.app[3] rcvdPkLifetime:stats
field count 0
field mean nan
field stddev nan
field min nan
field max nan
field sum 0
field sqrsum 0
attr interpolationmode none
attr source dataAge(packetReceived)
attr title "received packet lifetime, stats"
attr unit s
scalar DynamicTest.H3.app[3] packetSent:count 0
attr interpolationmode none
attr source packetSent
attr title "packets sent, count"
scalar DynamicTest.H3.app[3] packetSent:sum(packetBytes) 0
attr interpolationmode none
attr source packetSent
attr title "packets sent, sum(packetBytes)"
scalar DynamicTest.H3.app[4] "packets sent" 0
scalar DynamicTest.H3.app[4] "packets received" 0
scalar DynamicTest.H3.app[4] packetReceived:count 0
attr interpolationmode none
attr source packetReceived
attr title "packets received, count"
scalar DynamicTest.H3.app[4] packetReceived:sum(packetBytes) 0
attr interpolationmode none
attr source packetReceived
attr title "packets received, sum(packetBytes)"
statistic DynamicTest.H3.app[4] rcvdPkLifetime:stats
field count 0
field mean nan
field stddev nan
field min nan
field max nan
field sum 0
field sqrsum 0
attr interpolationmode none
attr source dataAge(packetReceived)
attr title "received packet lifetime, stats"
attr unit s
scalar DynamicTest.H3.app[4] packetSent:count 0
attr interpolationmode none
attr source packetSent
attr title "packets sent, count"
scalar DynamicTest.H3.app[4] packetSent:sum(packetBytes) 0
attr interpolationmode none
attr source packetSent
attr title "packets sent, sum(packetBytes)"
scalar DynamicTest.RP.lo[0].lo rcvdPkFromHl:count 0
attr interpolationmode none
attr source packetReceivedFromUpper
attr title "packets received from higher layer, count"
scalar DynamicTest.RP.lo[0].lo rcvdPkFromHl:sum(packetBytes) 0
attr interpolationmode none
attr source packetReceivedFromUpper
attr title "packets received from higher layer, sum(packetBytes)"
scalar DynamicTest.RP.lo[0].lo passedUpPk:count 0
attr interpolationmode none
attr source packetSentToUpper
attr title "packets passed to higher layer, count"
scalar DynamicTest.RP.lo[0].lo passedUpPk:sum(packetBytes) 0
attr interpolationmode none
attr source packetSentToUpper
attr title "packets passed to higher layer, sum(packetBytes)"
scalar DynamicTest.RP.eth[0].mac "simulated time" 100.0069209594
scalar DynamicTest.RP.eth[0].mac full-duplex 1
scalar DynamicTest.RP.eth[0].mac "frames/sec sent" 1.1999169542347
scalar DynamicTest.RP.eth[0].mac "frames/sec rcvd" 1.3099093417062
scalar DynamicTest.RP.eth[0].mac "bits/sec sent" 833.22233302059
scalar DynamicTest.RP.eth[0].mac "bits/sec rcvd" 989.53151492556
scalar DynamicTest.RP.eth[0].mac "rx channel idle (%)" 100
scalar DynamicTest.RP.eth[0].mac "rx channel utilization (%)" 0
scalar DynamicTest.RP.eth[0].mac txPk:count 120
attr interpolationmode none
attr source packetSentToLower
attr title "packets transmitted, count"
scalar DynamicTest.RP.eth[0].mac txPk:sum(packetBytes) 10416
attr interpolationmode none
attr source packetSentToLower
attr title "packets transmitted, sum(packetBytes)"
scalar DynamicTest.RP.eth[0].mac packetReceivedFromUpper:count 120
attr interpolationmode none
attr source packetReceivedFromUpper
attr title "packet bytes from higher layer, count"
scalar DynamicTest.RP.eth[0].mac packetReceivedFromUpper:sum(packetBytes) 10416
attr interpolationmode none
attr source packetReceivedFromUpper
attr title "packet bytes from higher layer, sum(packetBytes)"
scalar DynamicTest.RP.eth[0].mac passedUpPk:count 131
attr interpolationmode none
attr source packetSentToUpper
attr title "packets passed to higher layer, count"
scalar DynamicTest.RP.eth[0].mac passedUpPk:sum(packetBytes) 12370
attr interpolationmode none
attr source packetSentToUpper
attr title "packets passed to higher layer, sum(packetBytes)"
scalar DynamicTest.RP.eth[0].mac packetDropIncorrectlyReceived:count 0
attr interpolationmode none
attr source packetDropReasonIsIncorrectlyReceived(packetDropped)
attr title "packet drop: incorrectly received, count"
scalar DynamicTest.RP.eth[0].mac packetDropIncorrectlyReceived:sum(packetBytes) 0
attr interpolationmode none
attr source packetDropReasonIsIncorrectlyReceived(packetDropped)
attr title "packet drop: incorrectly received, sum(packetBytes)"
scalar DynamicTest.RP.eth[0].mac packetDropInterfaceDown:count 0
attr interpolationmode none
attr source packetDropReasonIsInterfaceDown(packetDropped)
attr title "packet drop: interface down, count"
scalar DynamicTest.RP.eth[0].mac packetDropInterfaceDown:sum(packetBytes) 0
attr interpolationmode none
attr source packetDropReasonIsInterfaceDown(packetDropped)
attr title "packet drop: interface down, sum(packetBytes)"
scalar DynamicTest.RP.eth[0].mac packetDropNotAddressedToUs:count 0
attr interpolationmode none
attr source packetDropReasonIsNotAddressedToUs(packetDropped)
attr title "packet drop: not addressed to us, count"
scalar DynamicTest.RP.eth[0].mac packetDropNotAddressedToUs:sum(packetBytes) 0
attr interpolationmode none
attr source packetDropReasonIsNotAddressedToUs(packetDropped)
attr title "packet drop: not addressed to us, sum(packetBytes)"
scalar DynamicTest.RP.eth[0].mac rxPausePkUnits:count 0
attr interpolationmode none
attr title "pause units received, count"
scalar DynamicTest.RP.eth[0].mac rxPausePkUnits:sum 0
attr interpolationmode none
attr title "pause units received, sum"
scalar DynamicTest.RP.eth[0].mac txPausePkUnits:count 0
attr interpolationmode none
attr title "pause units sent, count"
scalar DynamicTest.RP.eth[0].mac txPausePkUnits:sum 0
attr interpolationmode none
attr title "pause units sent, sum"
scalar DynamicTest.RP.eth[0].mac rxPkOk:count 131
attr interpolationmode none
attr source rxPkOk
attr title "packets received OK, count"
scalar DynamicTest.RP.eth[0].mac rxPkOk:sum(packetBytes) 12370
attr interpolationmode none
attr source rxPkOk
attr title "packets received OK, sum(packetBytes)"
scalar DynamicTest.RP.eth[0].encap pauseSent:count 0
attr title "pause sent, count"
scalar DynamicTest.RP.eth[0].encap pauseSent:sum 0
attr title "pause sent, sum"
scalar DynamicTest.RP.eth[0].encap decapPk:count 131
attr interpolationmode none
attr source decapPk
attr title "packets decapsulated, count"
scalar DynamicTest.RP.eth[0].encap decapPk:sum(packetBytes) 10012
attr interpolationmode none
attr source decapPk
attr title "packets decapsulated, sum(packetBytes)"
scalar DynamicTest.RP.eth[0].encap encapPk:count 120
attr interpolationmode none
attr source encapPk
attr title "packets encapsulated, count"
scalar DynamicTest.RP.eth[0].encap encapPk:sum(packetBytes) 8220
attr interpolationmode none
attr source encapPk
attr title "packets encapsulated, sum(packetBytes)"
scalar DynamicTest.RP.eth[1].mac "simulated time" 100.0069209594
scalar DynamicTest.RP.eth[1].mac full-duplex 1
scalar DynamicTest.RP.eth[1].mac "frames/sec sent" 0.9999307951956
scalar DynamicTest.RP.eth[1].mac "frames/sec rcvd" 0
scalar DynamicTest.RP.eth[1].mac "bits/sec sent" 655.95460164831
scalar DynamicTest.RP.eth[1].mac "bits/sec rcvd" 0
scalar DynamicTest.RP.eth[1].mac "rx channel idle (%)" 100
scalar DynamicTest.RP.eth[1].mac "rx channel utilization (%)" 0
scalar DynamicTest.RP.eth[1].mac txPk:count 100
attr interpolationmode none
attr source packetSentToLower
attr title "packets transmitted, count"
scalar DynamicTest.RP.eth[1].mac txPk:sum(packetBytes) 8200
attr interpolationmode none
attr source packetSentToLower
attr title "packets transmitted, sum(packetBytes)"
scalar DynamicTest.RP.eth[1].mac packetReceivedFromUpper:count 100
attr interpolationmode none
attr source packetReceivedFromUpper
attr title "packet bytes from higher layer, count"
scalar DynamicTest.RP.eth[1].mac packetReceivedFromUpper:sum(packetBytes) 8200
attr interpolationmode none
attr source packetReceivedFromUpper
attr title "packet bytes from higher layer, sum(packetBytes)"
scalar DynamicTest.RP.eth[1].mac passedUpPk:count 0
attr interpolationmode none
attr source packetSentToUpper
attr title "packets passed to higher layer, count"
scalar DynamicTest.RP.eth[1].mac passedUpPk:sum(packetBytes) 0
attr interpolationmode none
attr source packetSentToUpper
attr title "packets passed to higher layer, sum(packetBytes)"
scalar DynamicTest.RP.eth[1].mac packetDropIncorrectlyReceived:count 0
attr interpolationmode none
attr source packetDropReasonIsIncorrectlyReceived(packetDropped)
attr title "packet drop: incorrectly received, count"
scalar DynamicTest.RP.eth[1].mac packetDropIncorrectlyReceived:sum(packetBytes) 0
attr interpolationmode none
attr source packetDropReasonIsIncorrectlyReceived(packetDropped)
attr title "packet drop: incorrectly received, sum(packetBytes)"
scalar DynamicTest.RP.eth[1].mac packetDropInterfaceDown:count 0
attr interpolationmode none
attr source packetDropReasonIsInterfaceDown(packetDropped)
attr title "packet drop: interface down, count"
scalar DynamicTest.RP.eth[1].mac packetDropInterfaceDown:sum(packetBytes) 0
attr interpolationmode none
attr source packetDropReasonIsInterfaceDown(packetDropped)
attr title "packet drop: interface down, sum(packetBytes)"
scalar DynamicTest.RP.eth[1].mac packetDropNotAddressedToUs:count 0
attr interpolationmode none
attr source packetDropReasonIsNotAddressedToUs(packetDropped)
attr title "packet drop: not addressed to us, count"
scalar DynamicTest.RP.eth[1].mac packetDropNotAddressedToUs:sum(packetBytes) 0
attr interpolationmode none
attr source packetDropReasonIsNotAddressedToUs(packetDropped)
attr title "packet drop: not addressed to us, sum(packetBytes)"
scalar DynamicTest.RP.eth[1].mac rxPausePkUnits:count 0
attr interpolationmode none
attr title "pause units received, count"
scalar DynamicTest.RP.eth[1].mac rxPausePkUnits:sum 0
attr interpolationmode none
attr title "pause units received, sum"
scalar DynamicTest.RP.eth[1].mac txPausePkUnits:count 0
attr interpolationmode none
attr title "pause units sent, count"
scalar DynamicTest.RP.eth[1].mac txPausePkUnits:sum 0
attr interpolationmode none
attr title "pause units sent, sum"
scalar DynamicTest.RP.eth[1].mac rxPkOk:count 0
attr interpolationmode none
attr source rxPkOk
attr title "packets received OK, count"
scalar DynamicTest.RP.eth[1].mac rxPkOk:sum(packetBytes) 0
attr interpolationmode none
attr source rxPkOk
attr title "packets received OK, sum(packetBytes)"
scalar DynamicTest.RP.eth[1].encap pauseSent:count 0
attr title "pause sent, count"
scalar DynamicTest.RP.eth[1].encap pauseSent:sum 0
attr title "pause sent, sum"
scalar DynamicTest.RP.eth[1].encap decapPk:count 0
attr interpolationmode none
attr source decapPk
attr title "packets decapsulated, count"
scalar DynamicTest.RP.eth[1].encap decapPk:sum(packetBytes) 0
attr interpolationmode none
attr source decapPk
attr title "packets decapsulated, sum(packetBytes)"
scalar DynamicTest.RP.eth[1].encap encapPk:count 100
attr interpolationmode none
attr source encapPk
attr title "packets encapsulated, count"
scalar DynamicTest.RP.eth[1].encap encapPk:sum(packetBytes) 6400
attr interpolationmode none
attr source encapPk
attr title "packets encapsulated, sum(packetBytes)"
scalar DynamicTest.RP.ipv4.ip packetDropAddressResolutionFailed:count 0
attr interpolationmode none
attr source packetDropReasonIsAddressResolutionFailed(packetDropped)
attr title "packet drop: address resolution failed, count"
scalar DynamicTest.RP.ipv4.ip packetDropAddressResolutionFailed:sum(packetBytes) 0
attr interpolationmode none
attr source packetDropReasonIsAddressResolutionFailed(packetDropped)
attr title "packet drop: address resolution failed, sum(packetBytes)"
scalar DynamicTest.RP.ipv4.ip packetDropHopLimitReached:count 0
attr interpolationmode none
attr source packetDropReasonIsHopLimitReached(packetDropped)
attr title "packet drop: hop limit reached, count"
scalar DynamicTest.RP.ipv4.ip packetDropHopLimitReached:sum(packetBytes) 0
attr interpolationmode none
attr source packetDropReasonIsHopLimitReached(packetDropped)
attr title "packet drop: hop limit reached, sum(packetBytes)"
scalar DynamicTest.RP.ipv4.ip packetDropForwardingDisabled:count 0
attr interpolationmode none
attr source packetDropReasonIsForwardingDisabled(packetDropped)
attr title "packet drop: forwarding disabled, count"
scalar DynamicTest.RP.ipv4.ip packetDropForwardingDisabled:sum(packetBytes) 0
attr interpolationmode none
attr source packetDropReasonIsForwardingDisabled(packetDropped)
attr title "packet drop: forwarding disabled, sum(packetBytes)"
scalar DynamicTest.RP.ipv4.ip packetDropNoInterfaceFound:count 0
attr interpolationmode none
attr source packetDropReasonIsNoInterfaceFound(packetDropped)
attr title "packet drop: no interface found, count"
scalar DynamicTest.RP.ipv4.ip packetDropNoInterfaceFound:sum(packetBytes) 0
attr interpolationmode none
attr source packetDropReasonIsNoInterfaceFound(packetDropped)
attr title "packet drop: no interface found, sum(packetBytes)"
scalar DynamicTest.RP.ipv4.ip packetDropNoRouteFound:count 0
attr interpolationmode none
attr source packetDropReasonIsNoRouteFound(packetDropped)
attr title "packet drop: no route found, count"
scalar DynamicTest.RP.ipv4.ip packetDropNoRouteFound:sum(packetBytes) 0
attr interpolationmode none
attr source packetDropReasonIsNoRouteFound(packetDropped)
attr title "packet drop: no route found, sum(packetBytes)"
scalar DynamicTest.RP.ipv4.ip packetDropUndefined:count 0
attr interpolationmode none
attr source packetDropReasonIsUndefined(packetDropped)
attr title "packet drop: undefined, count"
scalar DynamicTest.RP.ipv4.ip packetDropUndefined:sum(packetBytes) 0
attr interpolationmode none
attr source packetDropReasonIsUndefined(packetDropped)
attr title "packet drop: undefined, sum(packetBytes)"
scalar DynamicTest.RP.ipv4.arp arpReplySent:count 1
attr source arpReplySent
attr title "ARP replies sent, count"
scalar DynamicTest.RP.ipv4.arp arpReplySent:sum(packetBytes) 28
attr source arpReplySent
attr title "ARP replies sent, sum(packetBytes)"
scalar DynamicTest.RP.ipv4.arp arpRequestSent:count 1
attr source arpRequestSent
attr title "ARP request sent, count"
scalar DynamicTest.RP.ipv4.arp arpRequestSent:sum(packetBytes) 28
attr source arpRequestSent
attr title "ARP request sent, sum(packetBytes)"
scalar DynamicTest.RP.ipv4.arp arpResolutionFailed:count 0
attr title "ARP failed resolutions, count"
scalar DynamicTest.RP.ipv4.arp arpResolutionCompleted:count 2
attr title "ARP completed resolutions, count"
scalar DynamicTest.RP.ipv4.arp arpResolutionInitiated:count 1
attr title "ARP initiated resolutions, count"

