file 1057657 1547900417                                         
version 2
run dynamic1-0-20190119-12:54:28-13092
attr configname dynamic1
attr datetime 20190119-12:54:28
attr experiment dynamic1
attr inifile omnetpp.ini
attr iterationvars ""
attr iterationvarsf ""
attr measurement ""
attr network DynamicTest
attr processid 13092
attr repetition 0
attr replication #0
attr resultdir results
attr runnumber 0
attr seedset 0
param *.scenarioManager.script "xmldoc(\"scenario1.xml\")"
param **.ospf.ospfConfig "xmldoc(\"ASConfig.xml\")"
param **.ospf.helloInterval 1s
param **.ospf.retransmissionInterval 5s
param **.ospf.interfaceTransmissionDelay 1s
param **.ospf.routerDeadInterval 4s
param **.ospf.authentication.typename "\"NullType\""
param **.ospf.authenticationKey "\"0x00\""
param **.H*.numApps 5
param **.app[0].typename "\"UdpBasicApp\""
param **.app[0].destPort 1234
param **.app[0].messageLength "32 bytes"
param **.app[0].sendInterval 0.1s
param **.app[0].startTime 100s
param **.app[0].stopTime "this.startTime + 400s"
param **.H2.app[0].destAddresses "\"H1\""
param **.H1.app[0].destAddresses "\"H2\""
param **.app[1].typename "\"UdpEchoApp\""
param **.app[1].localPort 1234
param **.app[2].typename "\"UdpBasicApp\""
param **.app[2].destPort 1234
param **.app[2].messageLength "32 bytes"
param **.app[2].sendInterval 0.11s
param **.app[2].startTime 100s
param **.app[2].stopTime "this.startTime + 400s"
param **.H2.app[2].destAddresses "\"H1\""
param **.H1.app[2].destAddresses "\"H2\""
param **.app[3].typename "\"UdpBasicApp\""
param **.app[3].destPort 1234
param **.app[3].messageLength "32 bytes"
param **.app[3].sendInterval 0.11s
param **.app[3].startTime 100s
param **.app[3].stopTime "this.startTime + 400s"
param **.H2.app[3].destAddresses "\"H1\""
param **.H1.app[3].destAddresses "\"H2\""
param **.app[4].typename "\"UdpBasicApp\""
param **.app[4].destPort 1234
param **.app[4].messageLength "32 bytes"
param **.app[4].sendInterval 0.0001s
param **.app[4].startTime 100s
param **.app[4].stopTime "this.startTime + 400s"
param **.H2.app[4].destAddresses "\"H1\""
param **.H1.app[4].destAddresses "\"H2\""
param **.arp.cacheTimeout 1s
param *.configurator.addStaticRoutes false
param *.configurator.addSubnetRoutes false
param *.configurator.addDefaultRoutes false

vector 0 DynamicTest.R2.eth[0].encap encapPk:vector(packetBytes) ETV
attr interpolationmode none
attr source encapPk
attr title "packets encapsulated, vector(packetBytes)"
vector 1 DynamicTest.R2.eth[0].mac packetReceivedFromUpper:vector(packetBytes) ETV
attr interpolationmode none
attr source packetReceivedFromUpper
attr title "packet bytes from higher layer, vector(packetBytes)"
vector 2 DynamicTest.R2.eth[0].mac txPk:vector(packetBytes) ETV
attr interpolationmode none
attr source packetSentToLower
attr title "packets transmitted, vector(packetBytes)"
vector 3 DynamicTest.H2.eth[0].mac rxPkOk:vector(packetBytes) ETV
attr interpolationmode none
attr source rxPkOk
attr title "packets received OK, vector(packetBytes)"
vector 4 DynamicTest.H2.eth[0].mac passedUpPk:vector(packetBytes) ETV
attr interpolationmode none
attr source packetSentToUpper
attr title "packets passed to higher layer, vector(packetBytes)"
vector 5 DynamicTest.H2.eth[0].encap decapPk:vector(packetBytes) ETV
attr interpolationmode none
attr source decapPk
attr title "packets decapsulated, vector(packetBytes)"
vector 6 DynamicTest.RB.eth[0].encap encapPk:vector(packetBytes) ETV
attr interpolationmode none
attr source encapPk
attr title "packets encapsulated, vector(packetBytes)"
vector 7 DynamicTest.RB.eth[0].mac packetReceivedFromUpper:vector(packetBytes) ETV
attr interpolationmode none
attr source packetReceivedFromUpper
attr title "packet bytes from higher layer, vector(packetBytes)"
vector 8 DynamicTest.RB.eth[0].mac txPk:vector(packetBytes) ETV
attr interpolationmode none
attr source packetSentToLower
attr title "packets transmitted, vector(packetBytes)"
vector 9 DynamicTest.R1.eth[2].mac rxPkOk:vector(packetBytes) ETV
attr interpolationmode none
attr source rxPkOk
attr title "packets received OK, vector(packetBytes)"
vector 10 DynamicTest.R1.eth[2].mac passedUpPk:vector(packetBytes) ETV
attr interpolationmode none
attr source packetSentToUpper
attr title "packets passed to higher layer, vector(packetBytes)"
vector 11 DynamicTest.R1.eth[2].encap decapPk:vector(packetBytes) ETV
attr interpolationmode none
attr source decapPk
attr title "packets decapsulated, vector(packetBytes)"
vector 12 DynamicTest.R1.eth[0].encap encapPk:vector(packetBytes) ETV
attr interpolationmode none
attr source encapPk
attr title "packets encapsulated, vector(packetBytes)"
vector 13 DynamicTest.R1.eth[0].mac packetReceivedFromUpper:vector(packetBytes) ETV
attr interpolationmode none
attr source packetReceivedFromUpper
attr title "packet bytes from higher layer, vector(packetBytes)"
vector 14 DynamicTest.R1.eth[0].mac txPk:vector(packetBytes) ETV
attr interpolationmode none
attr source packetSentToLower
attr title "packets transmitted, vector(packetBytes)"
vector 15 DynamicTest.H1.eth[0].mac rxPkOk:vector(packetBytes) ETV
attr interpolationmode none
attr source rxPkOk
attr title "packets received OK, vector(packetBytes)"
vector 16 DynamicTest.H1.eth[0].mac passedUpPk:vector(packetBytes) ETV
attr interpolationmode none
attr source packetSentToUpper
attr title "packets passed to higher layer, vector(packetBytes)"
vector 17 DynamicTest.H1.eth[0].encap decapPk:vector(packetBytes) ETV
attr interpolationmode none
attr source decapPk
attr title "packets decapsulated, vector(packetBytes)"
vector 18 DynamicTest.R2.eth[1].encap encapPk:vector(packetBytes) ETV
attr interpolationmode none
attr source encapPk
attr title "packets encapsulated, vector(packetBytes)"
vector 19 DynamicTest.R2.eth[1].mac packetReceivedFromUpper:vector(packetBytes) ETV
attr interpolationmode none
attr source packetReceivedFromUpper
attr title "packet bytes from higher layer, vector(packetBytes)"
vector 20 DynamicTest.R2.eth[1].mac txPk:vector(packetBytes) ETV
attr interpolationmode none
attr source packetSentToLower
attr title "packets transmitted, vector(packetBytes)"
vector 21 DynamicTest.RC.eth[1].mac rxPkOk:vector(packetBytes) ETV
attr interpolationmode none
attr source rxPkOk
attr title "packets received OK, vector(packetBytes)"
vector 22 DynamicTest.RC.eth[1].mac passedUpPk:vector(packetBytes) ETV
attr interpolationmode none
attr source packetSentToUpper
attr title "packets passed to higher layer, vector(packetBytes)"
vector 23 DynamicTest.RC.eth[1].encap decapPk:vector(packetBytes) ETV
attr interpolationmode none
attr source decapPk
attr title "packets decapsulated, vector(packetBytes)"
vector 24 DynamicTest.RD.eth[0].encap encapPk:vector(packetBytes) ETV
attr interpolationmode none
attr source encapPk
attr title "packets encapsulated, vector(packetBytes)"
vector 25 DynamicTest.RD.eth[0].mac packetReceivedFromUpper:vector(packetBytes) ETV
attr interpolationmode none
attr source packetReceivedFromUpper
attr title "packet bytes from higher layer, vector(packetBytes)"
vector 26 DynamicTest.RD.eth[0].mac txPk:vector(packetBytes) ETV
attr interpolationmode none
attr source packetSentToLower
attr title "packets transmitted, vector(packetBytes)"
vector 27 DynamicTest.RB.eth[1].mac rxPkOk:vector(packetBytes) ETV
attr interpolationmode none
attr source rxPkOk
attr title "packets received OK, vector(packetBytes)"
vector 28 DynamicTest.RB.eth[1].mac passedUpPk:vector(packetBytes) ETV
attr interpolationmode none
attr source packetSentToUpper
attr title "packets passed to higher layer, vector(packetBytes)"
vector 29 DynamicTest.RB.eth[1].encap decapPk:vector(packetBytes) ETV
attr interpolationmode none
attr source decapPk
attr title "packets decapsulated, vector(packetBytes)"
vector 30 DynamicTest.RA.eth[1].encap encapPk:vector(packetBytes) ETV
attr interpolationmode none
attr source encapPk
attr title "packets encapsulated, vector(packetBytes)"
vector 31 DynamicTest.RA.eth[1].mac packetReceivedFromUpper:vector(packetBytes) ETV
attr interpolationmode none
attr source packetReceivedFromUpper
attr title "packet bytes from higher layer, vector(packetBytes)"
vector 32 DynamicTest.RA.eth[1].mac txPk:vector(packetBytes) ETV
attr interpolationmode none
attr source packetSentToLower
attr title "packets transmitted, vector(packetBytes)"
vector 33 DynamicTest.RC.eth[0].mac rxPkOk:vector(packetBytes) ETV
attr interpolationmode none
attr source rxPkOk
attr title "packets received OK, vector(packetBytes)"
vector 34 DynamicTest.RC.eth[0].mac passedUpPk:vector(packetBytes) ETV
attr interpolationmode none
attr source packetSentToUpper
attr title "packets passed to higher layer, vector(packetBytes)"
vector 35 DynamicTest.RC.eth[0].encap decapPk:vector(packetBytes) ETV
attr interpolationmode none
attr source decapPk
attr title "packets decapsulated, vector(packetBytes)"
vector 36 DynamicTest.RC.eth[1].encap encapPk:vector(packetBytes) ETV
attr interpolationmode none
attr source encapPk
attr title "packets encapsulated, vector(packetBytes)"
vector 37 DynamicTest.RC.eth[1].mac packetReceivedFromUpper:vector(packetBytes) ETV
attr interpolationmode none
attr source packetReceivedFromUpper
attr title "packet bytes from higher layer, vector(packetBytes)"
vector 38 DynamicTest.RC.eth[1].mac txPk:vector(packetBytes) ETV
attr interpolationmode none
attr source packetSentToLower
attr title "packets transmitted, vector(packetBytes)"
vector 39 DynamicTest.R2.eth[1].mac rxPkOk:vector(packetBytes) ETV
attr interpolationmode none
attr source rxPkOk
attr title "packets received OK, vector(packetBytes)"
vector 40 DynamicTest.R2.eth[1].mac passedUpPk:vector(packetBytes) ETV
attr interpolationmode none
attr source packetSentToUpper
attr title "packets passed to higher layer, vector(packetBytes)"
vector 41 DynamicTest.R2.eth[1].encap decapPk:vector(packetBytes) ETV
attr interpolationmode none
attr source decapPk
attr title "packets decapsulated, vector(packetBytes)"
vector 42 DynamicTest.RB.eth[1].encap encapPk:vector(packetBytes) ETV
attr interpolationmode none
attr source encapPk
attr title "packets encapsulated, vector(packetBytes)"
vector 43 DynamicTest.RB.eth[1].mac packetReceivedFromUpper:vector(packetBytes) ETV
attr interpolationmode none
attr source packetReceivedFromUpper
attr title "packet bytes from higher layer, vector(packetBytes)"
vector 44 DynamicTest.RB.eth[1].mac txPk:vector(packetBytes) ETV
attr interpolationmode none
attr source packetSentToLower
attr title "packets transmitted, vector(packetBytes)"
vector 45 DynamicTest.RD.eth[0].mac rxPkOk:vector(packetBytes) ETV
attr interpolationmode none
attr source rxPkOk
attr title "packets received OK, vector(packetBytes)"
vector 46 DynamicTest.RD.eth[0].mac passedUpPk:vector(packetBytes) ETV
attr interpolationmode none
attr source packetSentToUpper
attr title "packets passed to higher layer, vector(packetBytes)"
vector 47 DynamicTest.RD.eth[0].encap decapPk:vector(packetBytes) ETV
attr interpolationmode none
attr source decapPk
attr title "packets decapsulated, vector(packetBytes)"
vector 48 DynamicTest.RK.eth[1].encap encapPk:vector(packetBytes) ETV
attr interpolationmode none
attr source encapPk
attr title "packets encapsulated, vector(packetBytes)"
vector 49 DynamicTest.RK.eth[1].mac packetReceivedFromUpper:vector(packetBytes) ETV
attr interpolationmode none
attr source packetReceivedFromUpper
attr title "packet bytes from higher layer, vector(packetBytes)"
vector 50 DynamicTest.RK.eth[1].mac txPk:vector(packetBytes) ETV
attr interpolationmode none
attr source packetSentToLower
attr title "packets transmitted, vector(packetBytes)"
vector 51 DynamicTest.RL.eth[0].mac rxPkOk:vector(packetBytes) ETV
attr interpolationmode none
attr source rxPkOk
attr title "packets received OK, vector(packetBytes)"
vector 52 DynamicTest.RL.eth[0].mac passedUpPk:vector(packetBytes) ETV
attr interpolationmode none
attr source packetSentToUpper
attr title "packets passed to higher layer, vector(packetBytes)"
vector 53 DynamicTest.RL.eth[0].encap decapPk:vector(packetBytes) ETV
attr interpolationmode none
attr source decapPk
attr title "packets decapsulated, vector(packetBytes)"
vector 54 DynamicTest.RK.eth[0].encap encapPk:vector(packetBytes) ETV
attr interpolationmode none
attr source encapPk
attr title "packets encapsulated, vector(packetBytes)"
vector 55 DynamicTest.RK.eth[0].mac packetReceivedFromUpper:vector(packetBytes) ETV
attr interpolationmode none
attr source packetReceivedFromUpper
attr title "packet bytes from higher layer, vector(packetBytes)"
vector 56 DynamicTest.RK.eth[0].mac txPk:vector(packetBytes) ETV
attr interpolationmode none
attr source packetSentToLower
attr title "packets transmitted, vector(packetBytes)"
vector 57 DynamicTest.R1.eth[3].mac rxPkOk:vector(packetBytes) ETV
attr interpolationmode none
attr source rxPkOk
attr title "packets received OK, vector(packetBytes)"
vector 58 DynamicTest.R1.eth[3].mac passedUpPk:vector(packetBytes) ETV
attr interpolationmode none
attr source packetSentToUpper
attr title "packets passed to higher layer, vector(packetBytes)"
vector 59 DynamicTest.R1.eth[3].encap decapPk:vector(packetBytes) ETV
attr interpolationmode none
attr source decapPk
attr title "packets decapsulated, vector(packetBytes)"
vector 60 DynamicTest.RL.eth[0].encap encapPk:vector(packetBytes) ETV
attr interpolationmode none
attr source encapPk
attr title "packets encapsulated, vector(packetBytes)"
vector 61 DynamicTest.RL.eth[0].mac packetReceivedFromUpper:vector(packetBytes) ETV
attr interpolationmode none
attr source packetReceivedFromUpper
attr title "packet bytes from higher layer, vector(packetBytes)"
vector 62 DynamicTest.RL.eth[0].mac txPk:vector(packetBytes) ETV
attr interpolationmode none
attr source packetSentToLower
attr title "packets transmitted, vector(packetBytes)"
vector 63 DynamicTest.RK.eth[1].mac rxPkOk:vector(packetBytes) ETV
attr interpolationmode none
attr source rxPkOk
attr title "packets received OK, vector(packetBytes)"
vector 64 DynamicTest.RK.eth[1].mac passedUpPk:vector(packetBytes) ETV
attr interpolationmode none
attr source packetSentToUpper
attr title "packets passed to higher layer, vector(packetBytes)"
vector 65 DynamicTest.RK.eth[1].encap decapPk:vector(packetBytes) ETV
attr interpolationmode none
attr source decapPk
attr title "packets decapsulated, vector(packetBytes)"
vector 66 DynamicTest.RD.eth[1].encap encapPk:vector(packetBytes) ETV
attr interpolationmode none
attr source encapPk
attr title "packets encapsulated, vector(packetBytes)"
vector 67 DynamicTest.RD.eth[1].mac packetReceivedFromUpper:vector(packetBytes) ETV
attr interpolationmode none
attr source packetReceivedFromUpper
attr title "packet bytes from higher layer, vector(packetBytes)"
vector 68 DynamicTest.RD.eth[1].mac txPk:vector(packetBytes) ETV
attr interpolationmode none
attr source packetSentToLower
attr title "packets transmitted, vector(packetBytes)"
vector 69 DynamicTest.R2.eth[2].mac rxPkOk:vector(packetBytes) ETV
attr interpolationmode none
attr source rxPkOk
attr title "packets received OK, vector(packetBytes)"
vector 70 DynamicTest.R2.eth[2].mac passedUpPk:vector(packetBytes) ETV
attr interpolationmode none
attr source packetSentToUpper
attr title "packets passed to higher layer, vector(packetBytes)"
vector 71 DynamicTest.R2.eth[2].encap decapPk:vector(packetBytes) ETV
attr interpolationmode none
attr source decapPk
attr title "packets decapsulated, vector(packetBytes)"
vector 72 DynamicTest.RA.eth[0].encap encapPk:vector(packetBytes) ETV
attr interpolationmode none
attr source encapPk
attr title "packets encapsulated, vector(packetBytes)"
vector 73 DynamicTest.RA.eth[0].mac packetReceivedFromUpper:vector(packetBytes) ETV
attr interpolationmode none
attr source packetReceivedFromUpper
attr title "packet bytes from higher layer, vector(packetBytes)"
vector 74 DynamicTest.RA.eth[0].mac txPk:vector(packetBytes) ETV
attr interpolationmode none
attr source packetSentToLower
attr title "packets transmitted, vector(packetBytes)"
vector 75 DynamicTest.R1.eth[1].mac rxPkOk:vector(packetBytes) ETV
attr interpolationmode none
attr source rxPkOk
attr title "packets received OK, vector(packetBytes)"
vector 76 DynamicTest.R1.eth[1].mac passedUpPk:vector(packetBytes) ETV
attr interpolationmode none
attr source packetSentToUpper
attr title "packets passed to higher layer, vector(packetBytes)"
vector 77 DynamicTest.R1.eth[1].encap decapPk:vector(packetBytes) ETV
attr interpolationmode none
attr source decapPk
attr title "packets decapsulated, vector(packetBytes)"
vector 78 DynamicTest.R1.eth[2].encap encapPk:vector(packetBytes) ETV
attr interpolationmode none
attr source encapPk
attr title "packets encapsulated, vector(packetBytes)"
vector 79 DynamicTest.R1.eth[2].mac packetReceivedFromUpper:vector(packetBytes) ETV
attr interpolationmode none
attr source packetReceivedFromUpper
attr title "packet bytes from higher layer, vector(packetBytes)"
vector 80 DynamicTest.R1.eth[2].mac txPk:vector(packetBytes) ETV
attr interpolationmode none
attr source packetSentToLower
attr title "packets transmitted, vector(packetBytes)"
vector 81 DynamicTest.RB.eth[0].mac rxPkOk:vector(packetBytes) ETV
attr interpolationmode none
attr source rxPkOk
attr title "packets received OK, vector(packetBytes)"
vector 82 DynamicTest.RB.eth[0].mac passedUpPk:vector(packetBytes) ETV
attr interpolationmode none
attr source packetSentToUpper
attr title "packets passed to higher layer, vector(packetBytes)"
vector 83 DynamicTest.RB.eth[0].encap decapPk:vector(packetBytes) ETV
attr interpolationmode none
attr source decapPk
attr title "packets decapsulated, vector(packetBytes)"
vector 84 DynamicTest.R1.eth[1].encap encapPk:vector(packetBytes) ETV
attr interpolationmode none
attr source encapPk
attr title "packets encapsulated, vector(packetBytes)"
vector 85 DynamicTest.R1.eth[1].mac packetReceivedFromUpper:vector(packetBytes) ETV
attr interpolationmode none
attr source packetReceivedFromUpper
attr title "packet bytes from higher layer, vector(packetBytes)"
vector 86 DynamicTest.R1.eth[1].mac txPk:vector(packetBytes) ETV
attr interpolationmode none
attr source packetSentToLower
attr title "packets transmitted, vector(packetBytes)"
vector 87 DynamicTest.RA.eth[0].mac rxPkOk:vector(packetBytes) ETV
attr interpolationmode none
attr source rxPkOk
attr title "packets received OK, vector(packetBytes)"
vector 88 DynamicTest.RA.eth[0].mac passedUpPk:vector(packetBytes) ETV
attr interpolationmode none
attr source packetSentToUpper
attr title "packets passed to higher layer, vector(packetBytes)"
vector 89 DynamicTest.RA.eth[0].encap decapPk:vector(packetBytes) ETV
attr interpolationmode none
attr source decapPk
attr title "packets decapsulated, vector(packetBytes)"
vector 90 DynamicTest.R2.eth[2].encap encapPk:vector(packetBytes) ETV
attr interpolationmode none
attr source encapPk
attr title "packets encapsulated, vector(packetBytes)"
vector 91 DynamicTest.R2.eth[2].mac packetReceivedFromUpper:vector(packetBytes) ETV
attr interpolationmode none
attr source packetReceivedFromUpper
attr title "packet bytes from higher layer, vector(packetBytes)"
vector 92 DynamicTest.R2.eth[2].mac txPk:vector(packetBytes) ETV
attr interpolationmode none
attr source packetSentToLower
attr title "packets transmitted, vector(packetBytes)"
vector 93 DynamicTest.RD.eth[1].mac rxPkOk:vector(packetBytes) ETV
attr interpolationmode none
attr source rxPkOk
attr title "packets received OK, vector(packetBytes)"
vector 94 DynamicTest.RD.eth[1].mac passedUpPk:vector(packetBytes) ETV
attr interpolationmode none
attr source packetSentToUpper
attr title "packets passed to higher layer, vector(packetBytes)"
vector 95 DynamicTest.RD.eth[1].encap decapPk:vector(packetBytes) ETV
attr interpolationmode none
attr source decapPk
attr title "packets decapsulated, vector(packetBytes)"
vector 96 DynamicTest.RL.eth[1].encap encapPk:vector(packetBytes) ETV
attr interpolationmode none
attr source encapPk
attr title "packets encapsulated, vector(packetBytes)"
vector 97 DynamicTest.RL.eth[1].mac packetReceivedFromUpper:vector(packetBytes) ETV
attr interpolationmode none
attr source packetReceivedFromUpper
attr title "packet bytes from higher layer, vector(packetBytes)"
vector 98 DynamicTest.RL.eth[1].mac txPk:vector(packetBytes) ETV
attr interpolationmode none
attr source packetSentToLower
attr title "packets transmitted, vector(packetBytes)"
vector 99 DynamicTest.R2.eth[3].mac rxPkOk:vector(packetBytes) ETV
attr interpolationmode none
attr source rxPkOk
attr title "packets received OK, vector(packetBytes)"
vector 100 DynamicTest.R2.eth[3].mac passedUpPk:vector(packetBytes) ETV
attr interpolationmode none
attr source packetSentToUpper
attr title "packets passed to higher layer, vector(packetBytes)"
vector 101 DynamicTest.R2.eth[3].encap decapPk:vector(packetBytes) ETV
attr interpolationmode none
attr source decapPk
attr title "packets decapsulated, vector(packetBytes)"
vector 102 DynamicTest.RC.eth[0].encap encapPk:vector(packetBytes) ETV
attr interpolationmode none
attr source encapPk
attr title "packets encapsulated, vector(packetBytes)"
vector 103 DynamicTest.RC.eth[0].mac packetReceivedFromUpper:vector(packetBytes) ETV
attr interpolationmode none
attr source packetReceivedFromUpper
attr title "packet bytes from higher layer, vector(packetBytes)"
vector 104 DynamicTest.RC.eth[0].mac txPk:vector(packetBytes) ETV
attr interpolationmode none
attr source packetSentToLower
attr title "packets transmitted, vector(packetBytes)"
vector 105 DynamicTest.RA.eth[1].mac rxPkOk:vector(packetBytes) ETV
attr interpolationmode none
attr source rxPkOk
attr title "packets received OK, vector(packetBytes)"
vector 106 DynamicTest.RA.eth[1].mac passedUpPk:vector(packetBytes) ETV
attr interpolationmode none
attr source packetSentToUpper
attr title "packets passed to higher layer, vector(packetBytes)"
vector 107 DynamicTest.RA.eth[1].encap decapPk:vector(packetBytes) ETV
attr interpolationmode none
attr source decapPk
attr title "packets decapsulated, vector(packetBytes)"
vector 108 DynamicTest.R2.ipv4.arp arpRequestSent:vector(packetBytes) ETV
attr source arpRequestSent
attr title "ARP request sent, vector(packetBytes)"
vector 109 DynamicTest.RC.ipv4.arp arpReplySent:vector(packetBytes) ETV
attr source arpReplySent
attr title "ARP replies sent, vector(packetBytes)"
vector 110 DynamicTest.RB.ipv4.arp arpRequestSent:vector(packetBytes) ETV
attr source arpRequestSent
attr title "ARP request sent, vector(packetBytes)"
vector 111 DynamicTest.RD.ipv4.arp arpRequestSent:vector(packetBytes) ETV
attr source arpRequestSent
attr title "ARP request sent, vector(packetBytes)"
vector 112 DynamicTest.RD.ipv4.arp arpReplySent:vector(packetBytes) ETV
attr source arpReplySent
attr title "ARP replies sent, vector(packetBytes)"
vector 113 DynamicTest.RB.ipv4.arp arpReplySent:vector(packetBytes) ETV
attr source arpReplySent
attr title "ARP replies sent, vector(packetBytes)"
vector 114 DynamicTest.RK.ipv4.arp arpRequestSent:vector(packetBytes) ETV
attr source arpRequestSent
attr title "ARP request sent, vector(packetBytes)"
vector 115 DynamicTest.RL.ipv4.arp arpRequestSent:vector(packetBytes) ETV
attr source arpRequestSent
attr title "ARP request sent, vector(packetBytes)"
vector 116 DynamicTest.RL.ipv4.arp arpReplySent:vector(packetBytes) ETV
attr source arpReplySent
attr title "ARP replies sent, vector(packetBytes)"
vector 117 DynamicTest.RK.ipv4.arp arpReplySent:vector(packetBytes) ETV
attr source arpReplySent
attr title "ARP replies sent, vector(packetBytes)"
vector 118 DynamicTest.R1.ipv4.arp arpRequestSent:vector(packetBytes) ETV
attr source arpRequestSent
attr title "ARP request sent, vector(packetBytes)"
vector 119 DynamicTest.R1.ipv4.arp arpReplySent:vector(packetBytes) ETV
attr source arpReplySent
attr title "ARP replies sent, vector(packetBytes)"
vector 120 DynamicTest.RA.ipv4.arp arpReplySent:vector(packetBytes) ETV
attr source arpReplySent
attr title "ARP replies sent, vector(packetBytes)"
vector 121 DynamicTest.RC.ipv4.arp arpRequestSent:vector(packetBytes) ETV
attr source arpRequestSent
attr title "ARP request sent, vector(packetBytes)"
vector 122 DynamicTest.R2.ipv4.arp arpReplySent:vector(packetBytes) ETV
attr source arpReplySent
attr title "ARP replies sent, vector(packetBytes)"
vector 123 DynamicTest.H1.app[0] packetSent:vector(packetBytes) ETV
attr interpolationmode none
attr source packetSent
attr title "packets sent, vector(packetBytes)"
vector 124 DynamicTest.H1.app[2] packetSent:vector(packetBytes) ETV
attr interpolationmode none
attr source packetSent
attr title "packets sent, vector(packetBytes)"
vector 125 DynamicTest.H1.app[3] packetSent:vector(packetBytes) ETV
attr interpolationmode none
attr source packetSent
attr title "packets sent, vector(packetBytes)"
vector 126 DynamicTest.H1.app[4] packetSent:vector(packetBytes) ETV
attr interpolationmode none
attr source packetSent
attr title "packets sent, vector(packetBytes)"
vector 127 DynamicTest.H2.app[0] packetSent:vector(packetBytes) ETV
attr interpolationmode none
attr source packetSent
attr title "packets sent, vector(packetBytes)"
vector 128 DynamicTest.H2.app[2] packetSent:vector(packetBytes) ETV
attr interpolationmode none
attr source packetSent
attr title "packets sent, vector(packetBytes)"
vector 129 DynamicTest.H2.app[3] packetSent:vector(packetBytes) ETV
attr interpolationmode none
attr source packetSent
attr title "packets sent, vector(packetBytes)"
vector 130 DynamicTest.H2.app[4] packetSent:vector(packetBytes) ETV
attr interpolationmode none
attr source packetSent
attr title "packets sent, vector(packetBytes)"
vector 131 DynamicTest.H1.udp packetSent:vector(packetBytes) ETV
attr interpolationmode none
attr source packetSent
attr title "packets sent, vector(packetBytes)"
vector 132 DynamicTest.H2.udp packetSent:vector(packetBytes) ETV
attr interpolationmode none
attr source packetSent
attr title "packets sent, vector(packetBytes)"
vector 133 DynamicTest.H1.ipv4.arp arpRequestSent:vector(packetBytes) ETV
attr source arpRequestSent
attr title "ARP request sent, vector(packetBytes)"
vector 134 DynamicTest.H2.ipv4.arp arpRequestSent:vector(packetBytes) ETV
attr source arpRequestSent
attr title "ARP request sent, vector(packetBytes)"
vector 135 DynamicTest.H1.eth[0].encap encapPk:vector(packetBytes) ETV
attr interpolationmode none
attr source encapPk
attr title "packets encapsulated, vector(packetBytes)"
vector 136 DynamicTest.H2.eth[0].encap encapPk:vector(packetBytes) ETV
attr interpolationmode none
attr source encapPk
attr title "packets encapsulated, vector(packetBytes)"
vector 137 DynamicTest.H1.eth[0].mac packetReceivedFromUpper:vector(packetBytes) ETV
attr interpolationmode none
attr source packetReceivedFromUpper
attr title "packet bytes from higher layer, vector(packetBytes)"
vector 138 DynamicTest.H2.eth[0].mac packetReceivedFromUpper:vector(packetBytes) ETV
attr interpolationmode none
attr source packetReceivedFromUpper
attr title "packet bytes from higher layer, vector(packetBytes)"
vector 139 DynamicTest.H1.eth[0].mac txPk:vector(packetBytes) ETV
attr interpolationmode none
attr source packetSentToLower
attr title "packets transmitted, vector(packetBytes)"
vector 140 DynamicTest.H2.eth[0].mac txPk:vector(packetBytes) ETV
attr interpolationmode none
attr source packetSentToLower
attr title "packets transmitted, vector(packetBytes)"
vector 141 DynamicTest.R1.eth[0].mac rxPkOk:vector(packetBytes) ETV
attr interpolationmode none
attr source rxPkOk
attr title "packets received OK, vector(packetBytes)"
vector 142 DynamicTest.R1.eth[0].mac passedUpPk:vector(packetBytes) ETV
attr interpolationmode none
attr source packetSentToUpper
attr title "packets passed to higher layer, vector(packetBytes)"
vector 143 DynamicTest.R2.eth[0].mac rxPkOk:vector(packetBytes) ETV
attr interpolationmode none
attr source rxPkOk
attr title "packets received OK, vector(packetBytes)"
vector 144 DynamicTest.R2.eth[0].mac passedUpPk:vector(packetBytes) ETV
attr interpolationmode none
attr source packetSentToUpper
attr title "packets passed to higher layer, vector(packetBytes)"
vector 145 DynamicTest.R1.eth[0].encap decapPk:vector(packetBytes) ETV
attr interpolationmode none
attr source decapPk
attr title "packets decapsulated, vector(packetBytes)"
vector 146 DynamicTest.R2.eth[0].encap decapPk:vector(packetBytes) ETV
attr interpolationmode none
attr source decapPk
attr title "packets decapsulated, vector(packetBytes)"
vector 147 DynamicTest.RA.ipv4.arp arpRequestSent:vector(packetBytes) ETV
attr source arpRequestSent
attr title "ARP request sent, vector(packetBytes)"
vector 148 DynamicTest.H2.udp packetReceived:vector(packetBytes) ETV
attr interpolationmode none
attr source packetReceived
attr title "packets received, vector(packetBytes)"
vector 149 DynamicTest.H2.udp passedUpPk:vector(count) ETV
attr interpolationmode none
attr source packetSentToUpper
attr title "packets passed up, vector(count)"
vector 150 DynamicTest.H1.udp packetReceived:vector(packetBytes) ETV
attr interpolationmode none
attr source packetReceived
attr title "packets received, vector(packetBytes)"
vector 151 DynamicTest.H1.udp passedUpPk:vector(count) ETV
attr interpolationmode none
attr source packetSentToUpper
attr title "packets passed up, vector(count)"
vector 152 DynamicTest.H2.app[1] echoedPk:vector(packetBytes) ETV
attr interpolationmode none
attr source packetSent
attr title "packets echoed, vector(packetBytes)"
vector 153 DynamicTest.H1.app[1] echoedPk:vector(packetBytes) ETV
attr interpolationmode none
attr source packetSent
attr title "packets echoed, vector(packetBytes)"
vector 154 DynamicTest.H1.app[0] packetReceived:vector(packetBytes) ETV
attr interpolationmode none
attr source packetReceived
attr title "packets received, vector(packetBytes)"
vector 155 DynamicTest.H1.app[0] throughput:vector ETV
attr source throughput(packetReceived)
attr title "throughput, vector"
attr unit bps
vector 156 DynamicTest.H1.app[0] rcvdPkLifetime:vector ETV
attr interpolationmode none
attr source dataAge(packetReceived)
attr title "received packet lifetime, vector"
attr unit s
vector 157 DynamicTest.H2.app[0] packetReceived:vector(packetBytes) ETV
attr interpolationmode none
attr source packetReceived
attr title "packets received, vector(packetBytes)"
vector 158 DynamicTest.H2.app[0] throughput:vector ETV
attr source throughput(packetReceived)
attr title "throughput, vector"
attr unit bps
vector 159 DynamicTest.H2.app[0] rcvdPkLifetime:vector ETV
attr interpolationmode none
attr source dataAge(packetReceived)
attr title "received packet lifetime, vector"
attr unit s
vector 160 DynamicTest.H1.app[2] packetReceived:vector(packetBytes) ETV
attr interpolationmode none
attr source packetReceived
attr title "packets received, vector(packetBytes)"
vector 161 DynamicTest.H1.app[2] throughput:vector ETV
attr source throughput(packetReceived)
attr title "throughput, vector"
attr unit bps
vector 162 DynamicTest.H1.app[2] rcvdPkLifetime:vector ETV
attr interpolationmode none
attr source dataAge(packetReceived)
attr title "received packet lifetime, vector"
attr unit s
vector 163 DynamicTest.H2.app[2] packetReceived:vector(packetBytes) ETV
attr interpolationmode none
attr source packetReceived
attr title "packets received, vector(packetBytes)"
vector 164 DynamicTest.H2.app[2] throughput:vector ETV
attr source throughput(packetReceived)
attr title "throughput, vector"
attr unit bps
vector 165 DynamicTest.H2.app[2] rcvdPkLifetime:vector ETV
attr interpolationmode none
attr source dataAge(packetReceived)
attr title "received packet lifetime, vector"
attr unit s
vector 166 DynamicTest.H1.app[4] packetReceived:vector(packetBytes) ETV
attr interpolationmode none
attr source packetReceived
attr title "packets received, vector(packetBytes)"
vector 167 DynamicTest.H1.app[4] throughput:vector ETV
attr source throughput(packetReceived)
attr title "throughput, vector"
attr unit bps
vector 168 DynamicTest.H1.app[4] rcvdPkLifetime:vector ETV
attr interpolationmode none
attr source dataAge(packetReceived)
attr title "received packet lifetime, vector"
attr unit s
vector 169 DynamicTest.H2.app[4] packetReceived:vector(packetBytes) ETV
attr interpolationmode none
attr source packetReceived
attr title "packets received, vector(packetBytes)"
vector 170 DynamicTest.H2.app[4] throughput:vector ETV
attr source throughput(packetReceived)
attr title "throughput, vector"
attr unit bps
vector 171 DynamicTest.H2.app[4] rcvdPkLifetime:vector ETV
attr interpolationmode none
attr source dataAge(packetReceived)
attr title "received packet lifetime, vector"
attr unit s
vector 172 DynamicTest.H1.app[3] packetReceived:vector(packetBytes) ETV
attr interpolationmode none
attr source packetReceived
attr title "packets received, vector(packetBytes)"
vector 173 DynamicTest.H1.app[3] throughput:vector ETV
attr source throughput(packetReceived)
attr title "throughput, vector"
attr unit bps
vector 174 DynamicTest.H1.app[3] rcvdPkLifetime:vector ETV
attr interpolationmode none
attr source dataAge(packetReceived)
attr title "received packet lifetime, vector"
attr unit s
vector 175 DynamicTest.H2.app[3] packetReceived:vector(packetBytes) ETV
attr interpolationmode none
attr source packetReceived
attr title "packets received, vector(packetBytes)"
vector 176 DynamicTest.H2.app[3] throughput:vector ETV
attr source throughput(packetReceived)
attr title "throughput, vector"
attr unit bps
vector 177 DynamicTest.H2.app[3] rcvdPkLifetime:vector ETV
attr interpolationmode none
attr source dataAge(packetReceived)
attr title "received packet lifetime, vector"
attr unit s
0	34320 10071 7 45886 0.08782770417 100.01446282 397 28 64 24188 1475984
1	44391 10071 8 45888 0.08782770417 100.01446282 397 64 82 31352 2477360
2	54462 9782 9 45892 0.08783490417 100.0144697 397 64 82 31352 2477360
3	64244 9783 10 45894 0.08783500417 100.0144698 397 64 82 31352 2477360
4	74027 9783 10 45894 0.08783500417 100.0144698 397 64 82 31352 2477360
5	83810 9783 11 45896 0.08783500417 100.0144698 397 46 64 24206 1477316
6	93593 6887 16 45871 0.089228422814 100.01445584 266 28 120 17076 1120400
7	100480 6890 17 45873 0.089228422814 100.01445584 266 64 138 21918 1827260
8	107370 6899 18 45877 0.089235622814 100.01446272 266 64 138 21918 1827260
9	114269 6899 19 45879 0.089235722814 100.01446282 266 64 138 21918 1827260
10	121168 7165 19 45879 0.089235722814 100.01446282 266 64 138 21918 1827260
11	128333 7162 20 45881 0.089235722814 100.01446282 266 46 120 17130 1124396
12	135495 10569 26 45885 0.089470098282 100.01446282 397 28 64 24188 1475984
13	146064 10569 27 45887 0.089470098282 100.01446282 397 64 82 31352 2477360
14	156633 10280 28 45891 0.089477298282 100.0144697 397 64 82 31352 2477360
15	166913 10280 29 45893 0.089477398282 100.0144698 397 64 82 31352 2477360
16	177193 10280 29 45893 0.089477398282 100.0144698 397 64 82 31352 2477360
17	187473 10280 30 45895 0.089477398282 100.0144698 397 46 64 24206 1477316
18	197753 7255 35 45924 0.089873400851 100.01450698 270 28 260 17492 1194064
19	205008 7258 36 45926 0.089873400851 100.01450698 270 64 278 22406 1917196
20	212266 7247 37 45772 0.089880600851 100.01441386 269 64 278 22328 1911112
21	219513 7247 38 45774 0.089880700851 100.01441396 269 64 278 22328 1911112
22	226760 7247 38 45774 0.089880700851 100.01441396 269 64 278 22328 1911112
23	234007 7244 39 45776 0.089880700851 100.01441396 269 46 260 17486 1194460
24	241251 7242 45 45857 0.090262027451 100.01444886 269 28 140 17236 1133840
25	248493 7244 46 45859 0.090262027451 100.01444886 269 64 158 22150 1849412
26	255737 7252 47 45863 0.090269227451 100.01445574 269 64 158 22150 1849412
27	262989 7254 48 45865 0.090269327451 100.01445584 269 64 158 22150 1849412
28	270243 7254 48 45865 0.090269327451 100.01445584 269 64 158 22150 1849412
29	277497 7252 49 45867 0.090269327451 100.01445584 269 46 140 17308 1139168
30	284749 7077 55 45779 0.092510047472 100.01441396 263 28 212 16948 1135024
31	291826 7080 56 45781 0.092510047472 100.01441396 263 64 230 21736 1836304
32	298906 7095 57 45785 0.092517247472 100.01442084 263 64 230 21736 1836304
33	306001 7095 58 45787 0.092517347472 100.01442094 263 64 230 21736 1836304
34	313096 7095 58 45787 0.092517347472 100.01442094 263 64 230 21736 1836304
35	320191 7092 59 45789 0.092517347472 100.01442094 263 46 212 17002 1139020
36	327283 7219 65 45793 0.096346980613 100.01442094 268 28 120 17184 1126656
37	334502 7219 66 45795 0.096346980613 100.01442094 268 64 138 22062 1838052
38	341721 7231 67 45799 0.096354500613 100.01442782 268 64 138 22062 1838052
39	348952 7231 68 45801 0.096354600613 100.01442792 268 64 138 22062 1838052
40	356183 7231 68 45801 0.096354600613 100.01442792 268 64 138 22062 1838052
41	363414 7231 69 45803 0.096354600613 100.01442792 268 46 120 17238 1130652
42	370645 7226 192 45858 0.096843115973 100.01444886 269 28 188 17292 1150800
43	377871 7229 193 45860 0.096843115973 100.01444886 269 64 206 22206 1868388
44	385100 7245 194 45864 0.096850635973 100.01445574 269 64 206 22206 1868388
45	392345 7246 195 45866 0.096850735973 100.01445584 269 64 206 22206 1868388
46	399591 7246 195 45866 0.096850735973 100.01445584 269 64 206 22206 1868388
47	406837 7244 196 45868 0.096850735973 100.01445584 269 46 188 17364 1156128
48	414081 3101 310 22249 0.097450692058 99.097450692058 110 28 96 7404 503408
49	417182 3103 311 22250 0.097450692058 99.097450692058 110 64 114 9420 809552
50	420285 3111 312 22251 0.097457892058 99.097458212058 110 64 114 9420 809552
51	423396 3111 313 22252 0.097457992058 99.097458312058 110 64 114 9420 809552
52	426507 3111 313 22252 0.097457992058 99.097458312058 110 64 114 9420 809552
53	429618 3109 314 22253 0.097457992058 99.097458312058 110 46 96 7440 506072
54	432727 2850 320 22259 0.097996321822 99.097996321822 100 64 64 6400 409600
55	435577 2850 321 22260 0.097996321822 99.097996321822 100 82 82 8200 672400
56	438427 2850 322 22261 0.098003521822 99.098003521822 100 82 82 8200 672400
57	441277 2850 323 22262 0.098003621822 99.098003621822 100 82 82 8200 672400
58	444127 2850 323 22262 0.098003621822 99.098003621822 100 82 82 8200 672400
59	446977 2850 324 22263 0.098003621822 99.098003621822 100 64 64 6400 409600
60	449827 3075 330 22269 0.098632778686 99.098632778686 109 28 96 7356 501232
61	452902 3077 331 22270 0.098632778686 99.098632778686 109 64 114 9354 805324
62	455979 3085 332 22271 0.098640298686 99.098640298686 109 64 114 9354 805324
63	459064 3085 333 22272 0.098640398686 99.098640398686 109 64 114 9354 805324
64	462149 3085 333 22272 0.098640398686 99.098640398686 109 64 114 9354 805324
65	465234 3083 334 22273 0.098640398686 99.098640398686 109 46 96 7392 503896
66	468317 7152 439 45872 0.106744704792 100.01445584 266 28 152 17220 1145200
67	475469 7153 440 45874 0.106744704792 100.01445584 266 64 170 22026 1853284
68	482622 7171 441 45878 0.106751904792 100.01446272 266 64 170 22026 1853284
69	489793 7171 442 45880 0.106752004792 100.01446282 266 64 170 22026 1853284
70	496964 7171 442 45880 0.106752004792 100.01446282 266 64 170 22026 1853284
71	504135 7170 443 45882 0.106752004792 100.01446282 266 46 152 17238 1146532
72	511305 7140 449 45794 0.107198867093 100.01442094 265 28 120 17092 1129488
73	518445 7143 450 45796 0.107198867093 100.01442094 265 64 138 21898 1834620
74	525588 7155 451 45800 0.107206067093 100.01442782 265 64 138 21898 1834620
75	532743 7155 452 45802 0.107206167093 100.01442792 265 64 138 21898 1834620
76	539898 7155 452 45802 0.107206167093 100.01442792 265 64 138 21898 1834620
77	547053 7152 453 45804 0.107206167093 100.01442792 265 46 120 17128 1132152
78	554205 7045 459 45844 0.10852570675 100.01444188 266 28 120 17108 1126544
79	561250 7047 460 45846 0.10852570675 100.01444188 266 64 138 21950 1834556
80	568297 7062 461 45850 0.10853322675 100.01444876 266 64 138 21950 1834556
81	575359 7062 462 45852 0.10853332675 100.01444886 266 64 138 21950 1834556
82	582421 7062 462 45852 0.10853332675 100.01444886 266 64 138 21950 1834556
83	589483 7060 463 45854 0.10853332675 100.01444886 266 46 120 17162 1130540
84	596543 7249 613 45923 0.108847807824 100.01450698 269 28 132 17400 1154144
85	603792 7251 614 45925 0.108847807824 100.01450698 269 64 150 22278 1871660
86	611043 7233 615 45771 0.108855327824 100.01441386 268 64 150 22200 1865576
87	618276 7233 616 45773 0.108855427824 100.01441396 268 64 150 22200 1865576
88	625509 7233 616 45773 0.108855427824 100.01441396 268 64 150 22200 1865576
89	632742 7231 617 45775 0.108855427824 100.01441396 268 46 132 17376 1153208
90	639973 7063 776 45843 0.111736760164 100.01444188 262 28 120 16956 1122640
91	647036 7065 777 45845 0.111736760164 100.01444188 262 64 138 21690 1819924
92	654101 7072 778 45849 0.111744280164 100.01444876 262 64 138 21690 1819924
93	661173 7072 779 45851 0.111744380164 100.01444886 262 64 138 21690 1819924
94	668245 7072 779 45851 0.111744380164 100.01444886 262 64 138 21690 1819924
95	675317 7070 780 45853 0.111744380164 100.01444886 262 46 120 16974 1123972
96	682387 2851 1083 22329 0.118226617754 99.118226617754 100 64 64 6400 409600
97	685238 2851 1084 22330 0.118226617754 99.118226617754 100 82 82 8200 672400
98	688089 2851 1085 22331 0.118233817754 99.118233817754 100 82 82 8200 672400
99	690940 2851 1086 22332 0.118233917754 99.118233917754 100 82 82 8200 672400
100	693791 2951 1086 22332 0.118233917754 99.118233917754 100 82 82 8200 672400
101	696742 2951 1087 22333 0.118233917754 99.118233917754 100 64 64 6400 409600
102	699693 7328 1093 45780 0.119763288281 100.01441396 262 28 212 17000 1151744
103	707021 7331 1094 45782 0.119763288281 100.01441396 262 64 230 21770 1854572
104	714352 7338 1095 45786 0.119770808281 100.01442084 262 64 230 21770 1854572
105	721690 7338 1096 45788 0.119770908281 100.01442094 262 64 230 21770 1854572
106	729028 7338 1096 45788 0.119770908281 100.01442094 262 64 230 21770 1854572
107	736366 7335 1097 45790 0.119770908281 100.01442094 262 46 212 17054 1155740
108	743701 81 2145 22484 5.096414720613 100.00002654 3 28 28 84 2352
109	743782 80 2151 22635 5.096420580613 100.0000511 3 28 28 84 2352
110	743862 81 2315 22535 5.096907435973 100.0000374 3 28 28 84 2352
111	743943 54 2319 22536 5.096908295973 100.0000374 2 28 28 56 1568
112	743997 82 2325 22581 5.096913295973 100.00004326 3 28 28 84 2352
113	744079 109 2334 22582 5.096914155973 100.00004326 4 28 28 112 3136
114	744188 28 2600 2600 5.098690758686 5.098690758686 1 28 28 28 784
115	744216 28 2604 2604 5.098691618686 5.098691618686 1 28 28 28 784
116	744244 28 2610 2610 5.098696618686 5.098696618686 1 28 28 28 784
117	744272 28 2619 2619 5.098697478686 5.098697478686 1 28 28 28 784
118	744300 108 2682 22483 5.10859942675 100.00002654 4 28 28 112 3136
119	744408 54 2688 22415 5.10860282675 100.00000586 2 28 28 56 1568
120	744462 109 2814 22636 5.108920187824 100.0000511 4 28 28 112 3136
121	744571 85 3926 22600 10.096422980613 100.00004524 3 28 28 84 2352
122	744656 56 3932 22416 10.096428840613 100.00000586 2 28 28 56 1568
123	744712 18 22347 22347 100 100 1 32 32 32 1024
124	744730 18 22348 22348 100 100 1 32 32 32 1024
125	744748 18 22349 22349 100 100 1 32 32 32 1024
126	744766 3338 22350 45905 100 100.0145 146 32 32 4672 149504
127	748104 18 22351 22351 100 100 1 32 32 32 1024
128	748122 18 22352 22352 100 100 1 32 32 32 1024
129	748140 18 22353 22353 100 100 1 32 32 32 1024
130	748158 3338 22354 45906 100 100.0145 146 32 32 4672 149504
131	751496 7243 22382 45907 100 100.0145 297 40 40 11880 475200
132	758739 7243 22390 45908 100 100.0145 297 40 40 11880 475200
133	765982 18 22397 22397 100 100 1 28 28 28 784
134	766000 18 22401 22401 100 100 1 28 28 28 784
135	766018 7297 22405 45911 100 100.0145 298 28 60 17848 1069984
136	773315 7297 22406 45912 100 100.0145 298 28 60 17848 1069984
137	780612 7297 22407 45913 100 100.0145 298 64 78 23230 1811044
138	787909 7297 22408 45914 100 100.0145 298 64 78 23230 1811044
139	795206 8045 22409 45915 100.00000576 100.01450688 298 64 78 23230 1811044
140	803251 8045 22410 45916 100.00000576 100.01450688 298 64 78 23230 1811044
141	811296 8045 22411 45917 100.00000586 100.01450698 298 64 78 23230 1811044
142	819341 8045 22411 45917 100.00000586 100.01450698 298 64 78 23230 1811044
143	827386 8045 22412 45918 100.00000586 100.01450698 298 64 78 23230 1811044
144	835431 8045 22412 45918 100.00000586 100.01450698 298 64 78 23230 1811044
145	843476 8045 22413 45919 100.00000586 100.01450698 298 46 60 17866 1071316
146	851521 8045 22414 45920 100.00000586 100.01450698 298 46 60 17866 1071316
147	859566 27 22599 22599 100.00004524 100.00004524 1 28 28 28 784
148	859593 7702 22713 45900 100.00006506 100.0144698 296 40 40 11840 473600
149	867295 7890 22713 45900 100.00006506 100.0144698 296 1 296 43956 8688636
150	875185 7702 22714 45899 100.00006506 100.0144698 296 40 40 11840 473600
151	882887 7890 22714 45899 100.00006506 100.0144698 296 1 296 43956 8688636
152	890777 3851 22715 45823 100.00006506 100.0144349 148 32 32 4736 151552
153	894628 3851 22716 45824 100.00006506 100.0144349 148 32 32 4736 151552
154	898479 27 23023 23023 100.00009996 100.00009996 1 32 32 32 1024
155	898506 17702 23023 23023 0.1 100 1000 0 0 0 0
156	916208 35 23023 23023 100.00009996 100.00009996 1 9.996e-005 9.996e-005 9.996e-005 9.9920016e-009
157	916243 27 23024 23024 100.00009996 100.00009996 1 32 32 32 1024
158	916270 17702 23024 23024 0.1 100 1000 0 0 0 0
159	933972 35 23024 23024 100.00009996 100.00009996 1 9.996e-005 9.996e-005 9.996e-005 9.9920016e-009
160	934007 26 23101 23101 100.0001078 100.0001078 1 32 32 32 1024
161	934033 17702 23101 23101 0.1 100 1000 0 0 0 0
162	951735 33 23101 23101 100.0001078 100.0001078 1 0.0001078 0.0001078 0.0001078 1.162084e-008
163	951768 26 23102 23102 100.0001078 100.0001078 1 32 32 32 1024
164	951794 17702 23102 23102 0.1 100 1000 0 0 0 0
165	969496 33 23102 23102 100.0001078 100.0001078 1 0.0001078 0.0001078 0.0001078 1.162084e-008
166	969529 3771 23159 45901 100.00011564 100.0144698 145 32 32 4640 148480
167	973300 17741 23159 38949 0.1 100.0100698 1001 0 2567677.6102802 2567677.6102802 6592968310334.5
168	991041 4787 23159 45901 100.00011564 100.0144698 145 6.98e-005 0.00011564 0.01016684 7.149463696e-007
169	995828 3771 23160 45902 100.00011564 100.0144698 145 32 32 4640 148480
170	999599 17741 23160 38950 0.1 100.0100698 1001 0 2567677.6102802 2567677.6102802 6592968310334.5
171	1017340 4787 23160 45902 100.00011564 100.0144698 145 6.98e-005 0.00011564 0.01016684 7.149463696e-007
172	1022127 27 23201 23201 100.00012348 100.00012348 1 32 32 32 1024
173	1022154 17702 23201 23201 0.1 100 1000 0 0 0 0
174	1039856 35 23201 23201 100.00012348 100.00012348 1 0.00012348 0.00012348 0.00012348 1.52473104e-008
175	1039891 27 23202 23202 100.00012348 100.00012348 1 32 32 32 1024
176	1039918 17702 23202 23202 0.1 100 1000 0 0 0 0
177	1057620 35 23202 23202 100.00012348 100.00012348 1 0.00012348 0.00012348 0.00012348 1.52473104e-008

