version 2
run dynamic1-0-20190119-12:54:28-13092
attr configname dynamic1
attr datetime 20190119-12:54:28
attr experiment dynamic1
attr inifile omnetpp.ini
attr iterationvars ""
attr iterationvarsf ""
attr measurement ""
attr network DynamicTest
attr processid 13092
attr repetition 0
attr replication #0
attr resultdir results
attr runnumber 0
attr seedset 0
param *.scenarioManager.script "xmldoc(\"scenario1.xml\")"
param **.ospf.ospfConfig "xmldoc(\"ASConfig.xml\")"
param **.ospf.helloInterval 1s
param **.ospf.retransmissionInterval 5s
param **.ospf.interfaceTransmissionDelay 1s
param **.ospf.routerDeadInterval 4s
param **.ospf.authentication.typename "\"NullType\""
param **.ospf.authenticationKey "\"0x00\""
param **.H*.numApps 5
param **.app[0].typename "\"UdpBasicApp\""
param **.app[0].destPort 1234
param **.app[0].messageLength "32 bytes"
param **.app[0].sendInterval 0.1s
param **.app[0].startTime 100s
param **.app[0].stopTime "this.startTime + 400s"
param **.H2.app[0].destAddresses "\"H1\""
param **.H1.app[0].destAddresses "\"H2\""
param **.app[1].typename "\"UdpEchoApp\""
param **.app[1].localPort 1234
param **.app[2].typename "\"UdpBasicApp\""
param **.app[2].destPort 1234
param **.app[2].messageLength "32 bytes"
param **.app[2].sendInterval 0.11s
param **.app[2].startTime 100s
param **.app[2].stopTime "this.startTime + 400s"
param **.H2.app[2].destAddresses "\"H1\""
param **.H1.app[2].destAddresses "\"H2\""
param **.app[3].typename "\"UdpBasicApp\""
param **.app[3].destPort 1234
param **.app[3].messageLength "32 bytes"
param **.app[3].sendInterval 0.11s
param **.app[3].startTime 100s
param **.app[3].stopTime "this.startTime + 400s"
param **.H2.app[3].destAddresses "\"H1\""
param **.H1.app[3].destAddresses "\"H2\""
param **.app[4].typename "\"UdpBasicApp\""
param **.app[4].destPort 1234
param **.app[4].messageLength "32 bytes"
param **.app[4].sendInterval 0.0001s
param **.app[4].startTime 100s
param **.app[4].stopTime "this.startTime + 400s"
param **.H2.app[4].destAddresses "\"H1\""
param **.H1.app[4].destAddresses "\"H2\""
param **.arp.cacheTimeout 1s
param *.configurator.addStaticRoutes false
param *.configurator.addSubnetRoutes false
param *.configurator.addDefaultRoutes false

vector 0 DynamicTest.R2.eth[0].encap encapPk:vector(packetBytes) ETV
attr interpolationmode none
attr source encapPk
attr title "packets encapsulated, vector(packetBytes)"
vector 1 DynamicTest.R2.eth[0].mac packetReceivedFromUpper:vector(packetBytes) ETV
attr interpolationmode none
attr source packetReceivedFromUpper
attr title "packet bytes from higher layer, vector(packetBytes)"
vector 2 DynamicTest.R2.eth[0].mac txPk:vector(packetBytes) ETV
attr interpolationmode none
attr source packetSentToLower
attr title "packets transmitted, vector(packetBytes)"
vector 3 DynamicTest.H2.eth[0].mac rxPkOk:vector(packetBytes) ETV
attr interpolationmode none
attr source rxPkOk
attr title "packets received OK, vector(packetBytes)"
vector 4 DynamicTest.H2.eth[0].mac passedUpPk:vector(packetBytes) ETV
attr interpolationmode none
attr source packetSentToUpper
attr title "packets passed to higher layer, vector(packetBytes)"
vector 5 DynamicTest.H2.eth[0].encap decapPk:vector(packetBytes) ETV
attr interpolationmode none
attr source decapPk
attr title "packets decapsulated, vector(packetBytes)"
vector 6 DynamicTest.RB.eth[0].encap encapPk:vector(packetBytes) ETV
attr interpolationmode none
attr source encapPk
attr title "packets encapsulated, vector(packetBytes)"
vector 7 DynamicTest.RB.eth[0].mac packetReceivedFromUpper:vector(packetBytes) ETV
attr interpolationmode none
attr source packetReceivedFromUpper
attr title "packet bytes from higher layer, vector(packetBytes)"
vector 8 DynamicTest.RB.eth[0].mac txPk:vector(packetBytes) ETV
attr interpolationmode none
attr source packetSentToLower
attr title "packets transmitted, vector(packetBytes)"
vector 9 DynamicTest.R1.eth[2].mac rxPkOk:vector(packetBytes) ETV
attr interpolationmode none
attr source rxPkOk
attr title "packets received OK, vector(packetBytes)"
vector 10 DynamicTest.R1.eth[2].mac passedUpPk:vector(packetBytes) ETV
attr interpolationmode none
attr source packetSentToUpper
attr title "packets passed to higher layer, vector(packetBytes)"
vector 11 DynamicTest.R1.eth[2].encap decapPk:vector(packetBytes) ETV
attr interpolationmode none
attr source decapPk
attr title "packets decapsulated, vector(packetBytes)"
vector 12 DynamicTest.R1.eth[0].encap encapPk:vector(packetBytes) ETV
attr interpolationmode none
attr source encapPk
attr title "packets encapsulated, vector(packetBytes)"
vector 13 DynamicTest.R1.eth[0].mac packetReceivedFromUpper:vector(packetBytes) ETV
attr interpolationmode none
attr source packetReceivedFromUpper
attr title "packet bytes from higher layer, vector(packetBytes)"
vector 14 DynamicTest.R1.eth[0].mac txPk:vector(packetBytes) ETV
attr interpolationmode none
attr source packetSentToLower
attr title "packets transmitted, vector(packetBytes)"
vector 15 DynamicTest.H1.eth[0].mac rxPkOk:vector(packetBytes) ETV
attr interpolationmode none
attr source rxPkOk
attr title "packets received OK, vector(packetBytes)"
vector 16 DynamicTest.H1.eth[0].mac passedUpPk:vector(packetBytes) ETV
attr interpolationmode none
attr source packetSentToUpper
attr title "packets passed to higher layer, vector(packetBytes)"
vector 17 DynamicTest.H1.eth[0].encap decapPk:vector(packetBytes) ETV
attr interpolationmode none
attr source decapPk
attr title "packets decapsulated, vector(packetBytes)"
vector 18 DynamicTest.R2.eth[1].encap encapPk:vector(packetBytes) ETV
attr interpolationmode none
attr source encapPk
attr title "packets encapsulated, vector(packetBytes)"
vector 19 DynamicTest.R2.eth[1].mac packetReceivedFromUpper:vector(packetBytes) ETV
attr interpolationmode none
attr source packetReceivedFromUpper
attr title "packet bytes from higher layer, vector(packetBytes)"
vector 20 DynamicTest.R2.eth[1].mac txPk:vector(packetBytes) ETV
attr interpolationmode none
attr source packetSentToLower
attr title "packets transmitted, vector(packetBytes)"
vector 21 DynamicTest.RC.eth[1].mac rxPkOk:vector(packetBytes) ETV
attr interpolationmode none
attr source rxPkOk
attr title "packets received OK, vector(packetBytes)"
vector 22 DynamicTest.RC.eth[1].mac passedUpPk:vector(packetBytes) ETV
attr interpolationmode none
attr source packetSentToUpper
attr title "packets passed to higher layer, vector(packetBytes)"
vector 23 DynamicTest.RC.eth[1].encap decapPk:vector(packetBytes) ETV
attr interpolationmode none
attr source decapPk
attr title "packets decapsulated, vector(packetBytes)"
vector 24 DynamicTest.RD.eth[0].encap encapPk:vector(packetBytes) ETV
attr interpolationmode none
attr source encapPk
attr title "packets encapsulated, vector(packetBytes)"
vector 25 DynamicTest.RD.eth[0].mac packetReceivedFromUpper:vector(packetBytes) ETV
attr interpolationmode none
attr source packetReceivedFromUpper
attr title "packet bytes from higher layer, vector(packetBytes)"
vector 26 DynamicTest.RD.eth[0].mac txPk:vector(packetBytes) ETV
attr interpolationmode none
attr source packetSentToLower
attr title "packets transmitted, vector(packetBytes)"
vector 27 DynamicTest.RB.eth[1].mac rxPkOk:vector(packetBytes) ETV
attr interpolationmode none
attr source rxPkOk
attr title "packets received OK, vector(packetBytes)"
vector 28 DynamicTest.RB.eth[1].mac passedUpPk:vector(packetBytes) ETV
attr interpolationmode none
attr source packetSentToUpper
attr title "packets passed to higher layer, vector(packetBytes)"
vector 29 DynamicTest.RB.eth[1].encap decapPk:vector(packetBytes) ETV
attr interpolationmode none
attr source decapPk
attr title "packets decapsulated, vector(packetBytes)"
vector 30 DynamicTest.RA.eth[1].encap encapPk:vector(packetBytes) ETV
attr interpolationmode none
attr source encapPk
attr title "packets encapsulated, vector(packetBytes)"
vector 31 DynamicTest.RA.eth[1].mac packetReceivedFromUpper:vector(packetBytes) ETV
attr interpolationmode none
attr source packetReceivedFromUpper
attr title "packet bytes from higher layer, vector(packetBytes)"
vector 32 DynamicTest.RA.eth[1].mac txPk:vector(packetBytes) ETV
attr interpolationmode none
attr source packetSentToLower
attr title "packets transmitted, vector(packetBytes)"
vector 33 DynamicTest.RC.eth[0].mac rxPkOk:vector(packetBytes) ETV
attr interpolationmode none
attr source rxPkOk
attr title "packets received OK, vector(packetBytes)"
vector 34 DynamicTest.RC.eth[0].mac passedUpPk:vector(packetBytes) ETV
attr interpolationmode none
attr source packetSentToUpper
attr title "packets passed to higher layer, vector(packetBytes)"
vector 35 DynamicTest.RC.eth[0].encap decapPk:vector(packetBytes) ETV
attr interpolationmode none
attr source decapPk
attr title "packets decapsulated, vector(packetBytes)"
vector 36 DynamicTest.RC.eth[1].encap encapPk:vector(packetBytes) ETV
attr interpolationmode none
attr source encapPk
attr title "packets encapsulated, vector(packetBytes)"
vector 37 DynamicTest.RC.eth[1].mac packetReceivedFromUpper:vector(packetBytes) ETV
attr interpolationmode none
attr source packetReceivedFromUpper
attr title "packet bytes from higher layer, vector(packetBytes)"
vector 38 DynamicTest.RC.eth[1].mac txPk:vector(packetBytes) ETV
attr interpolationmode none
attr source packetSentToLower
attr title "packets transmitted, vector(packetBytes)"
vector 39 DynamicTest.R2.eth[1].mac rxPkOk:vector(packetBytes) ETV
attr interpolationmode none
attr source rxPkOk
attr title "packets received OK, vector(packetBytes)"
vector 40 DynamicTest.R2.eth[1].mac passedUpPk:vector(packetBytes) ETV
attr interpolationmode none
attr source packetSentToUpper
attr title "packets passed to higher layer, vector(packetBytes)"
vector 41 DynamicTest.R2.eth[1].encap decapPk:vector(packetBytes) ETV
attr interpolationmode none
attr source decapPk
attr title "packets decapsulated, vector(packetBytes)"
vector 42 DynamicTest.RB.eth[1].encap encapPk:vector(packetBytes) ETV
attr interpolationmode none
attr source encapPk
attr title "packets encapsulated, vector(packetBytes)"
vector 43 DynamicTest.RB.eth[1].mac packetReceivedFromUpper:vector(packetBytes) ETV
attr interpolationmode none
attr source packetReceivedFromUpper
attr title "packet bytes from higher layer, vector(packetBytes)"
vector 44 DynamicTest.RB.eth[1].mac txPk:vector(packetBytes) ETV
attr interpolationmode none
attr source packetSentToLower
attr title "packets transmitted, vector(packetBytes)"
vector 45 DynamicTest.RD.eth[0].mac rxPkOk:vector(packetBytes) ETV
attr interpolationmode none
attr source rxPkOk
attr title "packets received OK, vector(packetBytes)"
vector 46 DynamicTest.RD.eth[0].mac passedUpPk:vector(packetBytes) ETV
attr interpolationmode none
attr source packetSentToUpper
attr title "packets passed to higher layer, vector(packetBytes)"
vector 47 DynamicTest.RD.eth[0].encap decapPk:vector(packetBytes) ETV
attr interpolationmode none
attr source decapPk
attr title "packets decapsulated, vector(packetBytes)"
vector 48 DynamicTest.RK.eth[1].encap encapPk:vector(packetBytes) ETV
attr interpolationmode none
attr source encapPk
attr title "packets encapsulated, vector(packetBytes)"
vector 49 DynamicTest.RK.eth[1].mac packetReceivedFromUpper:vector(packetBytes) ETV
attr interpolationmode none
attr source packetReceivedFromUpper
attr title "packet bytes from higher layer, vector(packetBytes)"
vector 50 DynamicTest.RK.eth[1].mac txPk:vector(packetBytes) ETV
attr interpolationmode none
attr source packetSentToLower
attr title "packets transmitted, vector(packetBytes)"
vector 51 DynamicTest.RL.eth[0].mac rxPkOk:vector(packetBytes) ETV
attr interpolationmode none
attr source rxPkOk
attr title "packets received OK, vector(packetBytes)"
vector 52 DynamicTest.RL.eth[0].mac passedUpPk:vector(packetBytes) ETV
attr interpolationmode none
attr source packetSentToUpper
attr title "packets passed to higher layer, vector(packetBytes)"
vector 53 DynamicTest.RL.eth[0].encap decapPk:vector(packetBytes) ETV
attr interpolationmode none
attr source decapPk
attr title "packets decapsulated, vector(packetBytes)"
vector 54 DynamicTest.RK.eth[0].encap encapPk:vector(packetBytes) ETV
attr interpolationmode none
attr source encapPk
attr title "packets encapsulated, vector(packetBytes)"
vector 55 DynamicTest.RK.eth[0].mac packetReceivedFromUpper:vector(packetBytes) ETV
attr interpolationmode none
attr source packetReceivedFromUpper
attr title "packet bytes from higher layer, vector(packetBytes)"
vector 56 DynamicTest.RK.eth[0].mac txPk:vector(packetBytes) ETV
attr interpolationmode none
attr source packetSentToLower
attr title "packets transmitted, vector(packetBytes)"
vector 57 DynamicTest.R1.eth[3].mac rxPkOk:vector(packetBytes) ETV
attr interpolationmode none
attr source rxPkOk
attr title "packets received OK, vector(packetBytes)"
vector 58 DynamicTest.R1.eth[3].mac passedUpPk:vector(packetBytes) ETV
attr interpolationmode none
attr source packetSentToUpper
attr title "packets passed to higher layer, vector(packetBytes)"
vector 59 DynamicTest.R1.eth[3].encap decapPk:vector(packetBytes) ETV
attr interpolationmode none
attr source decapPk
attr title "packets decapsulated, vector(packetBytes)"
vector 60 DynamicTest.RL.eth[0].encap encapPk:vector(packetBytes) ETV
attr interpolationmode none
attr source encapPk
attr title "packets encapsulated, vector(packetBytes)"
vector 61 DynamicTest.RL.eth[0].mac packetReceivedFromUpper:vector(packetBytes) ETV
attr interpolationmode none
attr source packetReceivedFromUpper
attr title "packet bytes from higher layer, vector(packetBytes)"
vector 62 DynamicTest.RL.eth[0].mac txPk:vector(packetBytes) ETV
attr interpolationmode none
attr source packetSentToLower
attr title "packets transmitted, vector(packetBytes)"
vector 63 DynamicTest.RK.eth[1].mac rxPkOk:vector(packetBytes) ETV
attr interpolationmode none
attr source rxPkOk
attr title "packets received OK, vector(packetBytes)"
vector 64 DynamicTest.RK.eth[1].mac passedUpPk:vector(packetBytes) ETV
attr interpolationmode none
attr source packetSentToUpper
attr title "packets passed to higher layer, vector(packetBytes)"
vector 65 DynamicTest.RK.eth[1].encap decapPk:vector(packetBytes) ETV
attr interpolationmode none
attr source decapPk
attr title "packets decapsulated, vector(packetBytes)"
vector 66 DynamicTest.RD.eth[1].encap encapPk:vector(packetBytes) ETV
attr interpolationmode none
attr source encapPk
attr title "packets encapsulated, vector(packetBytes)"
vector 67 DynamicTest.RD.eth[1].mac packetReceivedFromUpper:vector(packetBytes) ETV
attr interpolationmode none
attr source packetReceivedFromUpper
attr title "packet bytes from higher layer, vector(packetBytes)"
vector 68 DynamicTest.RD.eth[1].mac txPk:vector(packetBytes) ETV
attr interpolationmode none
attr source packetSentToLower
attr title "packets transmitted, vector(packetBytes)"
vector 69 DynamicTest.R2.eth[2].mac rxPkOk:vector(packetBytes) ETV
attr interpolationmode none
attr source rxPkOk
attr title "packets received OK, vector(packetBytes)"
vector 70 DynamicTest.R2.eth[2].mac passedUpPk:vector(packetBytes) ETV
attr interpolationmode none
attr source packetSentToUpper
attr title "packets passed to higher layer, vector(packetBytes)"
vector 71 DynamicTest.R2.eth[2].encap decapPk:vector(packetBytes) ETV
attr interpolationmode none
attr source decapPk
attr title "packets decapsulated, vector(packetBytes)"
vector 72 DynamicTest.RA.eth[0].encap encapPk:vector(packetBytes) ETV
attr interpolationmode none
attr source encapPk
attr title "packets encapsulated, vector(packetBytes)"
vector 73 DynamicTest.RA.eth[0].mac packetReceivedFromUpper:vector(packetBytes) ETV
attr interpolationmode none
attr source packetReceivedFromUpper
attr title "packet bytes from higher layer, vector(packetBytes)"
vector 74 DynamicTest.RA.eth[0].mac txPk:vector(packetBytes) ETV
attr interpolationmode none
attr source packetSentToLower
attr title "packets transmitted, vector(packetBytes)"
vector 75 DynamicTest.R1.eth[1].mac rxPkOk:vector(packetBytes) ETV
attr interpolationmode none
attr source rxPkOk
attr title "packets received OK, vector(packetBytes)"
vector 76 DynamicTest.R1.eth[1].mac passedUpPk:vector(packetBytes) ETV
attr interpolationmode none
attr source packetSentToUpper
attr title "packets passed to higher layer, vector(packetBytes)"
vector 77 DynamicTest.R1.eth[1].encap decapPk:vector(packetBytes) ETV
attr interpolationmode none
attr source decapPk
attr title "packets decapsulated, vector(packetBytes)"
vector 78 DynamicTest.R1.eth[2].encap encapPk:vector(packetBytes) ETV
attr interpolationmode none
attr source encapPk
attr title "packets encapsulated, vector(packetBytes)"
vector 79 DynamicTest.R1.eth[2].mac packetReceivedFromUpper:vector(packetBytes) ETV
attr interpolationmode none
attr source packetReceivedFromUpper
attr title "packet bytes from higher layer, vector(packetBytes)"
vector 80 DynamicTest.R1.eth[2].mac txPk:vector(packetBytes) ETV
attr interpolationmode none
attr source packetSentToLower
attr title "packets transmitted, vector(packetBytes)"
vector 81 DynamicTest.RB.eth[0].mac rxPkOk:vector(packetBytes) ETV
attr interpolationmode none
attr source rxPkOk
attr title "packets received OK, vector(packetBytes)"
vector 82 DynamicTest.RB.eth[0].mac passedUpPk:vector(packetBytes) ETV
attr interpolationmode none
attr source packetSentToUpper
attr title "packets passed to higher layer, vector(packetBytes)"
vector 83 DynamicTest.RB.eth[0].encap decapPk:vector(packetBytes) ETV
attr interpolationmode none
attr source decapPk
attr title "packets decapsulated, vector(packetBytes)"
vector 84 DynamicTest.R1.eth[1].encap encapPk:vector(packetBytes) ETV
attr interpolationmode none
attr source encapPk
attr title "packets encapsulated, vector(packetBytes)"
vector 85 DynamicTest.R1.eth[1].mac packetReceivedFromUpper:vector(packetBytes) ETV
attr interpolationmode none
attr source packetReceivedFromUpper
attr title "packet bytes from higher layer, vector(packetBytes)"
vector 86 DynamicTest.R1.eth[1].mac txPk:vector(packetBytes) ETV
attr interpolationmode none
attr source packetSentToLower
attr title "packets transmitted, vector(packetBytes)"
vector 87 DynamicTest.RA.eth[0].mac rxPkOk:vector(packetBytes) ETV
attr interpolationmode none
attr source rxPkOk
attr title "packets received OK, vector(packetBytes)"
vector 88 DynamicTest.RA.eth[0].mac passedUpPk:vector(packetBytes) ETV
attr interpolationmode none
attr source packetSentToUpper
attr title "packets passed to higher layer, vector(packetBytes)"
vector 89 DynamicTest.RA.eth[0].encap decapPk:vector(packetBytes) ETV
attr interpolationmode none
attr source decapPk
attr title "packets decapsulated, vector(packetBytes)"
vector 90 DynamicTest.R2.eth[2].encap encapPk:vector(packetBytes) ETV
attr interpolationmode none
attr source encapPk
attr title "packets encapsulated, vector(packetBytes)"
vector 91 DynamicTest.R2.eth[2].mac packetReceivedFromUpper:vector(packetBytes) ETV
attr interpolationmode none
attr source packetReceivedFromUpper
attr title "packet bytes from higher layer, vector(packetBytes)"
vector 92 DynamicTest.R2.eth[2].mac txPk:vector(packetBytes) ETV
attr interpolationmode none
attr source packetSentToLower
attr title "packets transmitted, vector(packetBytes)"
vector 93 DynamicTest.RD.eth[1].mac rxPkOk:vector(packetBytes) ETV
attr interpolationmode none
attr source rxPkOk
attr title "packets received OK, vector(packetBytes)"
vector 94 DynamicTest.RD.eth[1].mac passedUpPk:vector(packetBytes) ETV
attr interpolationmode none
attr source packetSentToUpper
attr title "packets passed to higher layer, vector(packetBytes)"
vector 95 DynamicTest.RD.eth[1].encap decapPk:vector(packetBytes) ETV
attr interpolationmode none
attr source decapPk
attr title "packets decapsulated, vector(packetBytes)"
vector 96 DynamicTest.RL.eth[1].encap encapPk:vector(packetBytes) ETV
attr interpolationmode none
attr source encapPk
attr title "packets encapsulated, vector(packetBytes)"
vector 97 DynamicTest.RL.eth[1].mac packetReceivedFromUpper:vector(packetBytes) ETV
attr interpolationmode none
attr source packetReceivedFromUpper
attr title "packet bytes from higher layer, vector(packetBytes)"
vector 98 DynamicTest.RL.eth[1].mac txPk:vector(packetBytes) ETV
attr interpolationmode none
attr source packetSentToLower
attr title "packets transmitted, vector(packetBytes)"
vector 99 DynamicTest.R2.eth[3].mac rxPkOk:vector(packetBytes) ETV
attr interpolationmode none
attr source rxPkOk
attr title "packets received OK, vector(packetBytes)"
vector 100 DynamicTest.R2.eth[3].mac passedUpPk:vector(packetBytes) ETV
attr interpolationmode none
attr source packetSentToUpper
attr title "packets passed to higher layer, vector(packetBytes)"
vector 101 DynamicTest.R2.eth[3].encap decapPk:vector(packetBytes) ETV
attr interpolationmode none
attr source decapPk
attr title "packets decapsulated, vector(packetBytes)"
vector 102 DynamicTest.RC.eth[0].encap encapPk:vector(packetBytes) ETV
attr interpolationmode none
attr source encapPk
attr title "packets encapsulated, vector(packetBytes)"
vector 103 DynamicTest.RC.eth[0].mac packetReceivedFromUpper:vector(packetBytes) ETV
attr interpolationmode none
attr source packetReceivedFromUpper
attr title "packet bytes from higher layer, vector(packetBytes)"
vector 104 DynamicTest.RC.eth[0].mac txPk:vector(packetBytes) ETV
attr interpolationmode none
attr source packetSentToLower
attr title "packets transmitted, vector(packetBytes)"
vector 105 DynamicTest.RA.eth[1].mac rxPkOk:vector(packetBytes) ETV
attr interpolationmode none
attr source rxPkOk
attr title "packets received OK, vector(packetBytes)"
vector 106 DynamicTest.RA.eth[1].mac passedUpPk:vector(packetBytes) ETV
attr interpolationmode none
attr source packetSentToUpper
attr title "packets passed to higher layer, vector(packetBytes)"
vector 107 DynamicTest.RA.eth[1].encap decapPk:vector(packetBytes) ETV
attr interpolationmode none
attr source decapPk
attr title "packets decapsulated, vector(packetBytes)"
vector 108 DynamicTest.R2.ipv4.arp arpRequestSent:vector(packetBytes) ETV
attr source arpRequestSent
attr title "ARP request sent, vector(packetBytes)"
vector 109 DynamicTest.RC.ipv4.arp arpReplySent:vector(packetBytes) ETV
attr source arpReplySent
attr title "ARP replies sent, vector(packetBytes)"
vector 110 DynamicTest.RB.ipv4.arp arpRequestSent:vector(packetBytes) ETV
attr source arpRequestSent
attr title "ARP request sent, vector(packetBytes)"
vector 111 DynamicTest.RD.ipv4.arp arpRequestSent:vector(packetBytes) ETV
attr source arpRequestSent
attr title "ARP request sent, vector(packetBytes)"
vector 112 DynamicTest.RD.ipv4.arp arpReplySent:vector(packetBytes) ETV
attr source arpReplySent
attr title "ARP replies sent, vector(packetBytes)"
vector 113 DynamicTest.RB.ipv4.arp arpReplySent:vector(packetBytes) ETV
attr source arpReplySent
attr title "ARP replies sent, vector(packetBytes)"
vector 114 DynamicTest.RK.ipv4.arp arpRequestSent:vector(packetBytes) ETV
attr source arpRequestSent
attr title "ARP request sent, vector(packetBytes)"
vector 115 DynamicTest.RL.ipv4.arp arpRequestSent:vector(packetBytes) ETV
attr source arpRequestSent
attr title "ARP request sent, vector(packetBytes)"
vector 116 DynamicTest.RL.ipv4.arp arpReplySent:vector(packetBytes) ETV
attr source arpReplySent
attr title "ARP replies sent, vector(packetBytes)"
vector 117 DynamicTest.RK.ipv4.arp arpReplySent:vector(packetBytes) ETV
attr source arpReplySent
attr title "ARP replies sent, vector(packetBytes)"
vector 118 DynamicTest.R1.ipv4.arp arpRequestSent:vector(packetBytes) ETV
attr source arpRequestSent
attr title "ARP request sent, vector(packetBytes)"
vector 119 DynamicTest.R1.ipv4.arp arpReplySent:vector(packetBytes) ETV
attr source arpReplySent
attr title "ARP replies sent, vector(packetBytes)"
vector 120 DynamicTest.RA.ipv4.arp arpReplySent:vector(packetBytes) ETV
attr source arpReplySent
attr title "ARP replies sent, vector(packetBytes)"
vector 121 DynamicTest.RC.ipv4.arp arpRequestSent:vector(packetBytes) ETV
attr source arpRequestSent
attr title "ARP request sent, vector(packetBytes)"
vector 122 DynamicTest.R2.ipv4.arp arpReplySent:vector(packetBytes) ETV
attr source arpReplySent
attr title "ARP replies sent, vector(packetBytes)"
vector 123 DynamicTest.H1.app[0] packetSent:vector(packetBytes) ETV
attr interpolationmode none
attr source packetSent
attr title "packets sent, vector(packetBytes)"
vector 124 DynamicTest.H1.app[2] packetSent:vector(packetBytes) ETV
attr interpolationmode none
attr source packetSent
attr title "packets sent, vector(packetBytes)"
vector 125 DynamicTest.H1.app[3] packetSent:vector(packetBytes) ETV
attr interpolationmode none
attr source packetSent
attr title "packets sent, vector(packetBytes)"
vector 126 DynamicTest.H1.app[4] packetSent:vector(packetBytes) ETV
attr interpolationmode none
attr source packetSent
attr title "packets sent, vector(packetBytes)"
vector 127 DynamicTest.H2.app[0] packetSent:vector(packetBytes) ETV
attr interpolationmode none
attr source packetSent
attr title "packets sent, vector(packetBytes)"
vector 128 DynamicTest.H2.app[2] packetSent:vector(packetBytes) ETV
attr interpolationmode none
attr source packetSent
attr title "packets sent, vector(packetBytes)"
vector 129 DynamicTest.H2.app[3] packetSent:vector(packetBytes) ETV
attr interpolationmode none
attr source packetSent
attr title "packets sent, vector(packetBytes)"
vector 130 DynamicTest.H2.app[4] packetSent:vector(packetBytes) ETV
attr interpolationmode none
attr source packetSent
attr title "packets sent, vector(packetBytes)"
vector 131 DynamicTest.H1.udp packetSent:vector(packetBytes) ETV
attr interpolationmode none
attr source packetSent
attr title "packets sent, vector(packetBytes)"
vector 132 DynamicTest.H2.udp packetSent:vector(packetBytes) ETV
attr interpolationmode none
attr source packetSent
attr title "packets sent, vector(packetBytes)"
vector 133 DynamicTest.H1.ipv4.arp arpRequestSent:vector(packetBytes) ETV
attr source arpRequestSent
attr title "ARP request sent, vector(packetBytes)"
vector 134 DynamicTest.H2.ipv4.arp arpRequestSent:vector(packetBytes) ETV
attr source arpRequestSent
attr title "ARP request sent, vector(packetBytes)"
vector 135 DynamicTest.H1.eth[0].encap encapPk:vector(packetBytes) ETV
attr interpolationmode none
attr source encapPk
attr title "packets encapsulated, vector(packetBytes)"
vector 136 DynamicTest.H2.eth[0].encap encapPk:vector(packetBytes) ETV
attr interpolationmode none
attr source encapPk
attr title "packets encapsulated, vector(packetBytes)"
vector 137 DynamicTest.H1.eth[0].mac packetReceivedFromUpper:vector(packetBytes) ETV
attr interpolationmode none
attr source packetReceivedFromUpper
attr title "packet bytes from higher layer, vector(packetBytes)"
vector 138 DynamicTest.H2.eth[0].mac packetReceivedFromUpper:vector(packetBytes) ETV
attr interpolationmode none
attr source packetReceivedFromUpper
attr title "packet bytes from higher layer, vector(packetBytes)"
vector 139 DynamicTest.H1.eth[0].mac txPk:vector(packetBytes) ETV
attr interpolationmode none
attr source packetSentToLower
attr title "packets transmitted, vector(packetBytes)"
vector 140 DynamicTest.H2.eth[0].mac txPk:vector(packetBytes) ETV
attr interpolationmode none
attr source packetSentToLower
attr title "packets transmitted, vector(packetBytes)"
vector 141 DynamicTest.R1.eth[0].mac rxPkOk:vector(packetBytes) ETV
attr interpolationmode none
attr source rxPkOk
attr title "packets received OK, vector(packetBytes)"
vector 142 DynamicTest.R1.eth[0].mac passedUpPk:vector(packetBytes) ETV
attr interpolationmode none
attr source packetSentToUpper
attr title "packets passed to higher layer, vector(packetBytes)"
vector 143 DynamicTest.R2.eth[0].mac rxPkOk:vector(packetBytes) ETV
attr interpolationmode none
attr source rxPkOk
attr title "packets received OK, vector(packetBytes)"
vector 144 DynamicTest.R2.eth[0].mac passedUpPk:vector(packetBytes) ETV
attr interpolationmode none
attr source packetSentToUpper
attr title "packets passed to higher layer, vector(packetBytes)"
vector 145 DynamicTest.R1.eth[0].encap decapPk:vector(packetBytes) ETV
attr interpolationmode none
attr source decapPk
attr title "packets decapsulated, vector(packetBytes)"
vector 146 DynamicTest.R2.eth[0].encap decapPk:vector(packetBytes) ETV
attr interpolationmode none
attr source decapPk
attr title "packets decapsulated, vector(packetBytes)"
vector 147 DynamicTest.RA.ipv4.arp arpRequestSent:vector(packetBytes) ETV
attr source arpRequestSent
attr title "ARP request sent, vector(packetBytes)"
vector 148 DynamicTest.H2.udp packetReceived:vector(packetBytes) ETV
attr interpolationmode none
attr source packetReceived
attr title "packets received, vector(packetBytes)"
vector 149 DynamicTest.H2.udp passedUpPk:vector(count) ETV
attr interpolationmode none
attr source packetSentToUpper
attr title "packets passed up, vector(count)"
vector 150 DynamicTest.H1.udp packetReceived:vector(packetBytes) ETV
attr interpolationmode none
attr source packetReceived
attr title "packets received, vector(packetBytes)"
vector 151 DynamicTest.H1.udp passedUpPk:vector(count) ETV
attr interpolationmode none
attr source packetSentToUpper
attr title "packets passed up, vector(count)"
vector 152 DynamicTest.H2.app[1] echoedPk:vector(packetBytes) ETV
attr interpolationmode none
attr source packetSent
attr title "packets echoed, vector(packetBytes)"
vector 153 DynamicTest.H1.app[1] echoedPk:vector(packetBytes) ETV
attr interpolationmode none
attr source packetSent
attr title "packets echoed, vector(packetBytes)"
vector 154 DynamicTest.H1.app[0] packetReceived:vector(packetBytes) ETV
attr interpolationmode none
attr source packetReceived
attr title "packets received, vector(packetBytes)"
vector 155 DynamicTest.H1.app[0] throughput:vector ETV
attr source throughput(packetReceived)
attr title "throughput, vector"
attr unit bps
vector 156 DynamicTest.H1.app[0] rcvdPkLifetime:vector ETV
attr interpolationmode none
attr source dataAge(packetReceived)
attr title "received packet lifetime, vector"
attr unit s
vector 157 DynamicTest.H2.app[0] packetReceived:vector(packetBytes) ETV
attr interpolationmode none
attr source packetReceived
attr title "packets received, vector(packetBytes)"
vector 158 DynamicTest.H2.app[0] throughput:vector ETV
attr source throughput(packetReceived)
attr title "throughput, vector"
attr unit bps
vector 159 DynamicTest.H2.app[0] rcvdPkLifetime:vector ETV
attr interpolationmode none
attr source dataAge(packetReceived)
attr title "received packet lifetime, vector"
attr unit s
vector 160 DynamicTest.H1.app[2] packetReceived:vector(packetBytes) ETV
attr interpolationmode none
attr source packetReceived
attr title "packets received, vector(packetBytes)"
vector 161 DynamicTest.H1.app[2] throughput:vector ETV
attr source throughput(packetReceived)
attr title "throughput, vector"
attr unit bps
vector 162 DynamicTest.H1.app[2] rcvdPkLifetime:vector ETV
attr interpolationmode none
attr source dataAge(packetReceived)
attr title "received packet lifetime, vector"
attr unit s
vector 163 DynamicTest.H2.app[2] packetReceived:vector(packetBytes) ETV
attr interpolationmode none
attr source packetReceived
attr title "packets received, vector(packetBytes)"
vector 164 DynamicTest.H2.app[2] throughput:vector ETV
attr source throughput(packetReceived)
attr title "throughput, vector"
attr unit bps
vector 165 DynamicTest.H2.app[2] rcvdPkLifetime:vector ETV
attr interpolationmode none
attr source dataAge(packetReceived)
attr title "received packet lifetime, vector"
attr unit s
vector 166 DynamicTest.H1.app[4] packetReceived:vector(packetBytes) ETV
attr interpolationmode none
attr source packetReceived
attr title "packets received, vector(packetBytes)"
vector 167 DynamicTest.H1.app[4] throughput:vector ETV
attr source throughput(packetReceived)
attr title "throughput, vector"
attr unit bps
vector 168 DynamicTest.H1.app[4] rcvdPkLifetime:vector ETV
attr interpolationmode none
attr source dataAge(packetReceived)
attr title "received packet lifetime, vector"
attr unit s
vector 169 DynamicTest.H2.app[4] packetReceived:vector(packetBytes) ETV
attr interpolationmode none
attr source packetReceived
attr title "packets received, vector(packetBytes)"
vector 170 DynamicTest.H2.app[4] throughput:vector ETV
attr source throughput(packetReceived)
attr title "throughput, vector"
attr unit bps
vector 171 DynamicTest.H2.app[4] rcvdPkLifetime:vector ETV
attr interpolationmode none
attr source dataAge(packetReceived)
attr title "received packet lifetime, vector"
attr unit s
vector 172 DynamicTest.H1.app[3] packetReceived:vector(packetBytes) ETV
attr interpolationmode none
attr source packetReceived
attr title "packets received, vector(packetBytes)"
vector 173 DynamicTest.H1.app[3] throughput:vector ETV
attr source throughput(packetReceived)
attr title "throughput, vector"
attr unit bps
vector 174 DynamicTest.H1.app[3] rcvdPkLifetime:vector ETV
attr interpolationmode none
attr source dataAge(packetReceived)
attr title "received packet lifetime, vector"
attr unit s
vector 175 DynamicTest.H2.app[3] packetReceived:vector(packetBytes) ETV
attr interpolationmode none
attr source packetReceived
attr title "packets received, vector(packetBytes)"
vector 176 DynamicTest.H2.app[3] throughput:vector ETV
attr source throughput(packetReceived)
attr title "throughput, vector"
attr unit bps
vector 177 DynamicTest.H2.app[3] rcvdPkLifetime:vector ETV
attr interpolationmode none
attr source dataAge(packetReceived)
attr title "received packet lifetime, vector"
attr unit s
0	7	0.08782770417	64
0	1246	1.08782770417	64
0	1450	2.08782770417	64
0	1654	3.08782770417	64
0	1860	4.08782770417	64
0	2078	5.08782770417	64
0	3043	6.08782770417	64
0	3247	7.08782770417	64
0	3451	8.08782770417	64
0	3655	9.08782770417	64
0	3859	10.08782770417	64
0	4219	11.08782770417	64
0	4423	12.08782770417	64
0	4627	13.08782770417	64
0	4831	14.08782770417	64
0	5035	15.08782770417	64
0	5239	16.08782770417	64
0	5443	17.08782770417	64
0	5647	18.08782770417	64
0	5851	19.08782770417	64
0	6055	20.08782770417	64
0	6259	21.08782770417	64
0	6463	22.08782770417	64
0	6667	23.08782770417	64
0	6871	24.08782770417	64
0	7075	25.08782770417	64
0	7279	26.08782770417	64
0	7483	27.08782770417	64
0	7687	28.08782770417	64
0	7891	29.08782770417	64
0	8095	30.08782770417	64
0	8299	31.08782770417	64
0	8503	32.08782770417	64
0	8707	33.08782770417	64
0	8911	34.08782770417	64
0	9115	35.08782770417	64
0	9319	36.08782770417	64
0	9523	37.08782770417	64
0	9727	38.08782770417	64
0	9931	39.08782770417	64
0	10135	40.08782770417	64
0	10339	41.08782770417	64
0	10543	42.08782770417	64
0	10747	43.08782770417	64
0	10951	44.08782770417	64
0	11155	45.08782770417	64
0	11359	46.08782770417	64
0	11563	47.08782770417	64
0	11767	48.08782770417	64
0	11971	49.08782770417	64
0	12175	50.08782770417	64
0	12379	51.08782770417	64
0	12583	52.08782770417	64
0	12787	53.08782770417	64
0	12991	54.08782770417	64
0	13195	55.08782770417	64
0	13399	56.08782770417	64
0	13603	57.08782770417	64
0	13807	58.08782770417	64
0	14011	59.08782770417	64
0	14215	60.08782770417	64
0	14419	61.08782770417	64
0	14623	62.08782770417	64
0	14827	63.08782770417	64
0	15031	64.08782770417	64
0	15235	65.08782770417	64
0	15439	66.08782770417	64
0	15643	67.08782770417	64
0	15847	68.08782770417	64
0	16051	69.08782770417	64
0	16255	70.08782770417	64
0	16459	71.08782770417	64
0	16663	72.08782770417	64
0	16867	73.08782770417	64
0	17071	74.08782770417	64
0	17275	75.08782770417	64
0	17479	76.08782770417	64
0	17683	77.08782770417	64
0	17887	78.08782770417	64
0	18091	79.08782770417	64
0	18295	80.08782770417	64
0	18499	81.08782770417	64
0	18703	82.08782770417	64
0	18907	83.08782770417	64
0	19111	84.08782770417	64
0	19315	85.08782770417	64
0	19519	86.08782770417	64
0	19723	87.08782770417	64
0	19927	88.08782770417	64
0	20131	89.08782770417	64
0	20335	90.08782770417	64
0	20539	91.08782770417	64
0	20743	92.08782770417	64
0	20947	93.08782770417	64
0	21151	94.08782770417	64
0	21355	95.08782770417	64
0	21559	96.08782770417	64
0	21763	97.08782770417	64
0	21967	98.08782770417	64
0	22171	99.08782770417	64
0	22418	100.00000586	28
0	22683	100.00005808	60
0	22755	100.00006592	60
0	22785	100.00007264	60
0	22863	100.00008048	60
0	22966	100.00009298	60
0	23046	100.00010082	60
0	23116	100.00010866	60
0	23172	100.0001165	60
0	23213	100.00012792	60
0	23292	100.00016282	60
0	23371	100.00022792	60
0	23450	100.00026282	60
0	23529	100.00032792	60
0	23608	100.00036282	60
0	23687	100.00042792	60
0	23766	100.00046282	60
0	23845	100.00052792	60
0	23924	100.00056282	60
0	24003	100.00062792	60
0	24082	100.00066282	60
0	24161	100.00072792	60
0	24240	100.00076282	60
0	24319	100.00082792	60
0	24398	100.00086282	60
0	24477	100.00092792	60
0	24556	100.00096282	60
0	24635	100.00102792	60
0	24714	100.00106282	60
0	24793	100.00112792	60
0	24872	100.00116282	60
0	24951	100.00122792	60
0	25030	100.00126282	60
0	25109	100.00132792	60
0	25188	100.00136282	60
0	25267	100.00142792	60
0	25346	100.00146282	60
0	25425	100.00152792	60
0	25504	100.00156282	60
0	25583	100.00162792	60
0	25662	100.00166282	60
0	25741	100.00172792	60
0	25820	100.00176282	60
0	25899	100.00182792	60
0	25978	100.00186282	60
0	26057	100.00192792	60
0	26136	100.00196282	60
0	26215	100.00202792	60
0	26294	100.00206282	60
0	26373	100.00212792	60
0	26452	100.00216282	60
0	26531	100.00222792	60
0	26610	100.00226282	60
0	26689	100.00232792	60
0	26768	100.00236282	60
0	26847	100.00242792	60
0	26926	100.00246282	60
0	27005	100.00252792	60
0	27084	100.00256282	60
0	27163	100.00262792	60
0	27242	100.00266282	60
0	27321	100.00272792	60
0	27400	100.00276282	60
0	27479	100.00282792	60
0	27558	100.00286282	60
0	27637	100.00292792	60
0	27716	100.00296282	60
0	27795	100.00302792	60
0	27874	100.00306282	60
0	27953	100.00312792	60
0	28032	100.00316282	60
0	28111	100.00322792	60
0	28190	100.00326282	60
0	28269	100.00332792	60
0	28348	100.00336282	60
0	28427	100.00342792	60
0	28506	100.00346282	60
0	28585	100.00352792	60
0	28664	100.00356282	60
0	28743	100.00362792	60
0	28822	100.00366282	60
0	28901	100.00372792	60
0	28980	100.00376282	60
0	29059	100.00382792	60
0	29138	100.00386282	60
0	29217	100.00392792	60
0	29296	100.00396282	60
0	29375	100.00402792	60
0	29454	100.00406282	60
0	29533	100.00412792	60
0	29612	100.00416282	60
0	29691	100.00422792	60
0	29770	100.00426282	60
0	29849	100.00432792	60
0	29928	100.00436282	60
0	30007	100.00442792	60
0	30086	100.00446282	60
0	30165	100.00452792	60
0	30244	100.00456282	60
0	30323	100.00462792	60
0	30402	100.00466282	60
0	30481	100.00472792	60
0	30560	100.00476282	60
0	30639	100.00482792	60
0	30718	100.00486282	60
0	30797	100.00492792	60
0	30876	100.00496282	60
0	30955	100.00502792	60
0	31034	100.00506282	60
0	31113	100.00512792	60
0	31192	100.00516282	60
0	31271	100.00522792	60
0	31350	100.00526282	60
0	31429	100.00532792	60
0	31508	100.00536282	60
0	31587	100.00542792	60
0	31666	100.00546282	60
0	31745	100.00552792	60
0	31824	100.00556282	60
0	31903	100.00562792	60
0	31982	100.00566282	60
0	32061	100.00572792	60
0	32140	100.00576282	60
0	32219	100.00582792	60
0	32298	100.00586282	60
0	32377	100.00592792	60
0	32456	100.00596282	60
0	32535	100.00602792	60
0	32614	100.00606282	60
0	32693	100.00612792	60
0	32772	100.00616282	60
0	32851	100.00622792	60
0	32930	100.00626282	60
0	33009	100.00632792	60
0	33088	100.00636282	60
0	33167	100.00642792	60
0	33246	100.00646282	60
0	33325	100.00652792	60
0	33404	100.00656282	60
0	33483	100.00662792	60
0	33562	100.00666282	60
0	33641	100.00672792	60
0	33720	100.00676282	60
0	33799	100.00682792	60
0	33878	100.00686282	60
0	33957	100.00692792	60
0	34036	100.00696282	60
0	34115	100.00702792	60
0	34194	100.00706282	60
0	34273	100.00712792	60
0	34352	100.00716282	60
0	34431	100.00722792	60
0	34510	100.00726282	60
0	34589	100.00732792	60
0	34668	100.00736282	60
0	34747	100.00742792	60
0	34826	100.00746282	60
0	34905	100.00752792	60
0	34984	100.00756282	60
0	35063	100.00762792	60
0	35142	100.00766282	60
0	35221	100.00772792	60
0	35300	100.00776282	60
0	35379	100.00782792	60
0	35458	100.00786282	60
0	35537	100.00792792	60
0	35616	100.00796282	60
0	35695	100.00802792	60
0	35774	100.00806282	60
0	35853	100.00812792	60
0	35932	100.00816282	60
0	36011	100.00822792	60
0	36090	100.00826282	60
0	36169	100.00832792	60
0	36248	100.00836282	60
0	36327	100.00842792	60
0	36406	100.00846282	60
0	36485	100.00852792	60
0	36564	100.00856282	60
0	36643	100.00862792	60
0	36722	100.00866282	60
0	36801	100.00872792	60
0	36880	100.00876282	60
0	36959	100.00882792	60
0	37038	100.00886282	60
0	37117	100.00892792	60
0	37196	100.00896282	60
0	37275	100.00902792	60
0	37354	100.00906282	60
0	37433	100.00912792	60
0	37512	100.00916282	60
0	37591	100.00922792	60
0	37670	100.00926282	60
0	37749	100.00932792	60
0	37828	100.00936282	60
0	37907	100.00942792	60
0	37986	100.00946282	60
0	38065	100.00952792	60
0	38144	100.00956282	60
0	38223	100.00962792	60
0	38302	100.00966282	60
0	38381	100.00972792	60
0	38460	100.00976282	60
0	38539	100.00982792	60
0	38618	100.00986282	60
0	38697	100.00992792	60
0	38776	100.00996282	60
0	38855	100.01002792	60
0	38934	100.01006282	60
0	39013	100.01012792	60
0	39092	100.01016282	60
0	39171	100.01022792	60
0	39250	100.01026282	60
0	39329	100.01032792	60
0	39408	100.01036282	60
0	39487	100.01042792	60
0	39566	100.01046282	60
0	39645	100.01052792	60
0	39724	100.01056282	60
0	39803	100.01062792	60
0	39882	100.01066282	60
0	39961	100.01072792	60
0	40040	100.01076282	60
0	40119	100.01082792	60
0	40198	100.01086282	60
0	40277	100.01092792	60
0	40356	100.01096282	60
0	40435	100.01102792	60
0	40514	100.01106282	60
0	40593	100.01112792	60
0	40672	100.01116282	60
0	40751	100.01122792	60
0	40830	100.01126282	60
0	40909	100.01132792	60
0	40988	100.01136282	60
0	41067	100.01142792	60
0	41146	100.01146282	60
0	41225	100.01152792	60
0	41304	100.01156282	60
0	41383	100.01162792	60
0	41462	100.01166282	60
0	41541	100.01172792	60
0	41620	100.01176282	60
0	41699	100.01182792	60
0	41778	100.01186282	60
0	41857	100.01192792	60
0	41936	100.01196282	60
0	42015	100.01202792	60
0	42094	100.01206282	60
0	42173	100.01212792	60
0	42252	100.01216282	60
0	42331	100.01222792	60
0	42410	100.01226282	60
0	42489	100.01232792	60
0	42568	100.01236282	60
0	42647	100.01242792	60
0	42726	100.01246282	60
0	42805	100.01252792	60
0	42884	100.01256282	60
0	42963	100.01262792	60
0	43042	100.01266282	60
0	43121	100.01272792	60
0	43200	100.01276282	60
0	43279	100.01282792	60
0	43358	100.01286282	60
0	43437	100.01292792	60
0	43516	100.01296282	60
0	43595	100.01302792	60
0	43674	100.01306282	60
0	43753	100.01312792	60
0	43832	100.01316282	60
0	43911	100.01322792	60
0	43990	100.01326282	60
0	44069	100.01332792	60
0	44148	100.01336282	60
0	44227	100.01342792	60
0	44306	100.01346282	60
0	44385	100.01352792	60
0	44464	100.01356282	60
0	44543	100.01362792	60
0	44622	100.01366282	60
0	44701	100.01372792	60
0	44780	100.01376282	60
0	44859	100.01382792	60
0	44938	100.01386282	60
0	45017	100.01392792	60
0	45096	100.01396282	60
0	45175	100.01402792	60
0	45254	100.01406282	60
0	45333	100.01412792	60
0	45412	100.01416282	60
0	45491	100.01422792	60
0	45570	100.01426282	60
0	45649	100.01432792	60
0	45728	100.01436282	60
0	45807	100.01442792	60
0	45886	100.01446282	60
1	8	0.08782770417	82
1	1247	1.08782770417	82
1	1451	2.08782770417	82
1	1655	3.08782770417	82
1	1861	4.08782770417	82
1	2079	5.08782770417	82
1	3044	6.08782770417	82
1	3248	7.08782770417	82
1	3452	8.08782770417	82
1	3656	9.08782770417	82
1	3860	10.08782770417	82
1	4220	11.08782770417	82
1	4424	12.08782770417	82
1	4628	13.08782770417	82
1	4832	14.08782770417	82
1	5036	15.08782770417	82
1	5240	16.08782770417	82
1	5444	17.08782770417	82
1	5648	18.08782770417	82
1	5852	19.08782770417	82
1	6056	20.08782770417	82
1	6260	21.08782770417	82
1	6464	22.08782770417	82
1	6668	23.08782770417	82
1	6872	24.08782770417	82
1	7076	25.08782770417	82
1	7280	26.08782770417	82
1	7484	27.08782770417	82
1	7688	28.08782770417	82
1	7892	29.08782770417	82
1	8096	30.08782770417	82
1	8300	31.08782770417	82
1	8504	32.08782770417	82
1	8708	33.08782770417	82
1	8912	34.08782770417	82
1	9116	35.08782770417	82
1	9320	36.08782770417	82
1	9524	37.08782770417	82
1	9728	38.08782770417	82
1	9932	39.08782770417	82
1	10136	40.08782770417	82
1	10340	41.08782770417	82
1	10544	42.08782770417	82
1	10748	43.08782770417	82
1	10952	44.08782770417	82
1	11156	45.08782770417	82
1	11360	46.08782770417	82
1	11564	47.08782770417	82
1	11768	48.08782770417	82
1	11972	49.08782770417	82
1	12176	50.08782770417	82
1	12380	51.08782770417	82
1	12584	52.08782770417	82
1	12788	53.08782770417	82
1	12992	54.08782770417	82
1	13196	55.08782770417	82
1	13400	56.08782770417	82
1	13604	57.08782770417	82
1	13808	58.08782770417	82
1	14012	59.08782770417	82
1	14216	60.08782770417	82
1	14420	61.08782770417	82
1	14624	62.08782770417	82
1	14828	63.08782770417	82
1	15032	64.08782770417	82
1	15236	65.08782770417	82
1	15440	66.08782770417	82
1	15644	67.08782770417	82
1	15848	68.08782770417	82
1	16052	69.08782770417	82
1	16256	70.08782770417	82
1	16460	71.08782770417	82
1	16664	72.08782770417	82
1	16868	73.08782770417	82
1	17072	74.08782770417	82
1	17276	75.08782770417	82
1	17480	76.08782770417	82
1	17684	77.08782770417	82
1	17888	78.08782770417	82
1	18092	79.08782770417	82
1	18296	80.08782770417	82
1	18500	81.08782770417	82
1	18704	82.08782770417	82
1	18908	83.08782770417	82
1	19112	84.08782770417	82
1	19316	85.08782770417	82
1	19520	86.08782770417	82
1	19724	87.08782770417	82
1	19928	88.08782770417	82
1	20132	89.08782770417	82
1	20336	90.08782770417	82
1	20540	91.08782770417	82
1	20744	92.08782770417	82
1	20948	93.08782770417	82
1	21152	94.08782770417	82
1	21356	95.08782770417	82
1	21560	96.08782770417	82
1	21764	97.08782770417	82
1	21968	98.08782770417	82
1	22172	99.08782770417	82
1	22420	100.00000586	64
1	22685	100.00005808	78
1	22757	100.00006592	78
1	22787	100.00007264	78
1	22865	100.00008048	78
1	22968	100.00009298	78
1	23048	100.00010082	78
1	23118	100.00010866	78
1	23174	100.0001165	78
1	23215	100.00012792	78
1	23294	100.00016282	78
1	23373	100.00022792	78
1	23452	100.00026282	78
1	23531	100.00032792	78
1	23610	100.00036282	78
1	23689	100.00042792	78
1	23768	100.00046282	78
1	23847	100.00052792	78
1	23926	100.00056282	78
1	24005	100.00062792	78
1	24084	100.00066282	78
1	24163	100.00072792	78
1	24242	100.00076282	78
1	24321	100.00082792	78
1	24400	100.00086282	78
1	24479	100.00092792	78
1	24558	100.00096282	78
1	24637	100.00102792	78
1	24716	100.00106282	78
1	24795	100.00112792	78
1	24874	100.00116282	78
1	24953	100.00122792	78
1	25032	100.00126282	78
1	25111	100.00132792	78
1	25190	100.00136282	78
1	25269	100.00142792	78
1	25348	100.00146282	78
1	25427	100.00152792	78
1	25506	100.00156282	78
1	25585	100.00162792	78
1	25664	100.00166282	78
1	25743	100.00172792	78
1	25822	100.00176282	78
1	25901	100.00182792	78
1	25980	100.00186282	78
1	26059	100.00192792	78
1	26138	100.00196282	78
1	26217	100.00202792	78
1	26296	100.00206282	78
1	26375	100.00212792	78
1	26454	100.00216282	78
1	26533	100.00222792	78
1	26612	100.00226282	78
1	26691	100.00232792	78
1	26770	100.00236282	78
1	26849	100.00242792	78
1	26928	100.00246282	78
1	27007	100.00252792	78
1	27086	100.00256282	78
1	27165	100.00262792	78
1	27244	100.00266282	78
1	27323	100.00272792	78
1	27402	100.00276282	78
1	27481	100.00282792	78
1	27560	100.00286282	78
1	27639	100.00292792	78
1	27718	100.00296282	78
1	27797	100.00302792	78
1	27876	100.00306282	78
1	27955	100.00312792	78
1	28034	100.00316282	78
1	28113	100.00322792	78
1	28192	100.00326282	78
1	28271	100.00332792	78
1	28350	100.00336282	78
1	28429	100.00342792	78
1	28508	100.00346282	78
1	28587	100.00352792	78
1	28666	100.00356282	78
1	28745	100.00362792	78
1	28824	100.00366282	78
1	28903	100.00372792	78
1	28982	100.00376282	78
1	29061	100.00382792	78
1	29140	100.00386282	78
1	29219	100.00392792	78
1	29298	100.00396282	78
1	29377	100.00402792	78
1	29456	100.00406282	78
1	29535	100.00412792	78
1	29614	100.00416282	78
1	29693	100.00422792	78
1	29772	100.00426282	78
1	29851	100.00432792	78
1	29930	100.00436282	78
1	30009	100.00442792	78
1	30088	100.00446282	78
1	30167	100.00452792	78
1	30246	100.00456282	78
1	30325	100.00462792	78
1	30404	100.00466282	78
1	30483	100.00472792	78
1	30562	100.00476282	78
1	30641	100.00482792	78
1	30720	100.00486282	78
1	30799	100.00492792	78
1	30878	100.00496282	78
1	30957	100.00502792	78
1	31036	100.00506282	78
1	31115	100.00512792	78
1	31194	100.00516282	78
1	31273	100.00522792	78
1	31352	100.00526282	78
1	31431	100.00532792	78
1	31510	100.00536282	78
1	31589	100.00542792	78
1	31668	100.00546282	78
1	31747	100.00552792	78
1	31826	100.00556282	78
1	31905	100.00562792	78
1	31984	100.00566282	78
1	32063	100.00572792	78
1	32142	100.00576282	78
1	32221	100.00582792	78
1	32300	100.00586282	78
1	32379	100.00592792	78
1	32458	100.00596282	78
1	32537	100.00602792	78
1	32616	100.00606282	78
1	32695	100.00612792	78
1	32774	100.00616282	78
1	32853	100.00622792	78
1	32932	100.00626282	78
1	33011	100.00632792	78
1	33090	100.00636282	78
1	33169	100.00642792	78
1	33248	100.00646282	78
1	33327	100.00652792	78
1	33406	100.00656282	78
1	33485	100.00662792	78
1	33564	100.00666282	78
1	33643	100.00672792	78
1	33722	100.00676282	78
1	33801	100.00682792	78
1	33880	100.00686282	78
1	33959	100.00692792	78
1	34038	100.00696282	78
1	34117	100.00702792	78
1	34196	100.00706282	78
1	34275	100.00712792	78
1	34354	100.00716282	78
1	34433	100.00722792	78
1	34512	100.00726282	78
1	34591	100.00732792	78
1	34670	100.00736282	78
1	34749	100.00742792	78
1	34828	100.00746282	78
1	34907	100.00752792	78
1	34986	100.00756282	78
1	35065	100.00762792	78
1	35144	100.00766282	78
1	35223	100.00772792	78
1	35302	100.00776282	78
1	35381	100.00782792	78
1	35460	100.00786282	78
1	35539	100.00792792	78
1	35618	100.00796282	78
1	35697	100.00802792	78
1	35776	100.00806282	78
1	35855	100.00812792	78
1	35934	100.00816282	78
1	36013	100.00822792	78
1	36092	100.00826282	78
1	36171	100.00832792	78
1	36250	100.00836282	78
1	36329	100.00842792	78
1	36408	100.00846282	78
1	36487	100.00852792	78
1	36566	100.00856282	78
1	36645	100.00862792	78
1	36724	100.00866282	78
1	36803	100.00872792	78
1	36882	100.00876282	78
1	36961	100.00882792	78
1	37040	100.00886282	78
1	37119	100.00892792	78
1	37198	100.00896282	78
1	37277	100.00902792	78
1	37356	100.00906282	78
1	37435	100.00912792	78
1	37514	100.00916282	78
1	37593	100.00922792	78
1	37672	100.00926282	78
1	37751	100.00932792	78
1	37830	100.00936282	78
1	37909	100.00942792	78
1	37988	100.00946282	78
1	38067	100.00952792	78
1	38146	100.00956282	78
1	38225	100.00962792	78
1	38304	100.00966282	78
1	38383	100.00972792	78
1	38462	100.00976282	78
1	38541	100.00982792	78
1	38620	100.00986282	78
1	38699	100.00992792	78
1	38778	100.00996282	78
1	38857	100.01002792	78
1	38936	100.01006282	78
1	39015	100.01012792	78
1	39094	100.01016282	78
1	39173	100.01022792	78
1	39252	100.01026282	78
1	39331	100.01032792	78
1	39410	100.01036282	78
1	39489	100.01042792	78
1	39568	100.01046282	78
1	39647	100.01052792	78
1	39726	100.01056282	78
1	39805	100.01062792	78
1	39884	100.01066282	78
1	39963	100.01072792	78
1	40042	100.01076282	78
1	40121	100.01082792	78
1	40200	100.01086282	78
1	40279	100.01092792	78
1	40358	100.01096282	78
1	40437	100.01102792	78
1	40516	100.01106282	78
1	40595	100.01112792	78
1	40674	100.01116282	78
1	40753	100.01122792	78
1	40832	100.01126282	78
1	40911	100.01132792	78
1	40990	100.01136282	78
1	41069	100.01142792	78
1	41148	100.01146282	78
1	41227	100.01152792	78
1	41306	100.01156282	78
1	41385	100.01162792	78
1	41464	100.01166282	78
1	41543	100.01172792	78
1	41622	100.01176282	78
1	41701	100.01182792	78
1	41780	100.01186282	78
1	41859	100.01192792	78
1	41938	100.01196282	78
1	42017	100.01202792	78
1	42096	100.01206282	78
1	42175	100.01212792	78
1	42254	100.01216282	78
1	42333	100.01222792	78
1	42412	100.01226282	78
1	42491	100.01232792	78
1	42570	100.01236282	78
1	42649	100.01242792	78
1	42728	100.01246282	78
1	42807	100.01252792	78
1	42886	100.01256282	78
1	42965	100.01262792	78
1	43044	100.01266282	78
1	43123	100.01272792	78
1	43202	100.01276282	78
1	43281	100.01282792	78
1	43360	100.01286282	78
1	43439	100.01292792	78
1	43518	100.01296282	78
1	43597	100.01302792	78
1	43676	100.01306282	78
1	43755	100.01312792	78
1	43834	100.01316282	78
1	43913	100.01322792	78
1	43992	100.01326282	78
1	44071	100.01332792	78
1	44150	100.01336282	78
1	44229	100.01342792	78
1	44308	100.01346282	78
1	44387	100.01352792	78
1	44466	100.01356282	78
1	44545	100.01362792	78
1	44624	100.01366282	78
1	44703	100.01372792	78
1	44782	100.01376282	78
1	44861	100.01382792	78
1	44940	100.01386282	78
1	45019	100.01392792	78
1	45098	100.01396282	78
1	45177	100.01402792	78
1	45256	100.01406282	78
1	45335	100.01412792	78
1	45414	100.01416282	78
1	45493	100.01422792	78
1	45572	100.01426282	78
1	45651	100.01432792	78
1	45730	100.01436282	78
1	45809	100.01442792	78
1	45888	100.01446282	78
2	9	0.08783490417	82
2	1248	1.08783490417	82
2	1452	2.08783490417	82
2	1656	3.08783490417	82
2	1862	4.08783490417	82
2	2080	5.08783490417	82
2	3045	6.08783490417	82
2	3249	7.08783490417	82
2	3453	8.08783490417	82
2	3657	9.08783490417	82
2	3861	10.08783490417	82
2	4221	11.08783490417	82
2	4425	12.08783490417	82
2	4629	13.08783490417	82
2	4833	14.08783490417	82
2	5037	15.08783490417	82
2	5241	16.08783490417	82
2	5445	17.08783490417	82
2	5649	18.08783490417	82
2	5853	19.08783490417	82
2	6057	20.08783490417	82
2	6261	21.08783490417	82
2	6465	22.08783490417	82
2	6669	23.08783490417	82
2	6873	24.08783490417	82
2	7077	25.08783490417	82
2	7281	26.08783490417	82
2	7485	27.08783490417	82
2	7689	28.08783490417	82
2	7893	29.08783490417	82
2	8097	30.08783490417	82
2	8301	31.08783490417	82
2	8505	32.08783490417	82
2	8709	33.08783490417	82
2	8913	34.08783490417	82
2	9117	35.08783490417	82
2	9321	36.08783490417	82
2	9525	37.08783490417	82
2	9729	38.08783490417	82
2	9933	39.08783490417	82
2	10137	40.08783490417	82
2	10341	41.08783490417	82
2	10545	42.08783490417	82
2	10749	43.08783490417	82
2	10953	44.08783490417	82
2	11157	45.08783490417	82
2	11361	46.08783490417	82
2	11565	47.08783490417	82
2	11769	48.08783490417	82
2	11973	49.08783490417	82
2	12177	50.08783490417	82
2	12381	51.08783490417	82
2	12585	52.08783490417	82
2	12789	53.08783490417	82
2	12993	54.08783490417	82
2	13197	55.08783490417	82
2	13401	56.08783490417	82
2	13605	57.08783490417	82
2	13809	58.08783490417	82
2	14013	59.08783490417	82
2	14217	60.08783490417	82
2	14421	61.08783490417	82
2	14625	62.08783490417	82
2	14829	63.08783490417	82
2	15033	64.08783490417	82
2	15237	65.08783490417	82
2	15441	66.08783490417	82
2	15645	67.08783490417	82
2	15849	68.08783490417	82
2	16053	69.08783490417	82
2	16257	70.08783490417	82
2	16461	71.08783490417	82
2	16665	72.08783490417	82
2	16869	73.08783490417	82
2	17073	74.08783490417	82
2	17277	75.08783490417	82
2	17481	76.08783490417	82
2	17685	77.08783490417	82
2	17889	78.08783490417	82
2	18093	79.08783490417	82
2	18297	80.08783490417	82
2	18501	81.08783490417	82
2	18705	82.08783490417	82
2	18909	83.08783490417	82
2	19113	84.08783490417	82
2	19317	85.08783490417	82
2	19521	86.08783490417	82
2	19725	87.08783490417	82
2	19929	88.08783490417	82
2	20133	89.08783490417	82
2	20337	90.08783490417	82
2	20541	91.08783490417	82
2	20745	92.08783490417	82
2	20949	93.08783490417	82
2	21153	94.08783490417	82
2	21357	95.08783490417	82
2	21561	96.08783490417	82
2	21765	97.08783490417	82
2	21969	98.08783490417	82
2	22173	99.08783490417	82
2	22424	100.00001162	64
2	22705	100.00006496	78
2	22789	100.0000728	78
2	22867	100.00008064	78
2	22933	100.00008848	78
2	23014	100.00009986	78
2	23092	100.0001077	78
2	23150	100.00011554	78
2	23192	100.00012338	78
2	23219	100.0001348	78
2	23298	100.0001697	78
2	23377	100.0002348	78
2	23456	100.0002697	78
2	23535	100.0003348	78
2	23614	100.0003697	78
2	23693	100.0004348	78
2	23772	100.0004697	78
2	23851	100.0005348	78
2	23930	100.0005697	78
2	24009	100.0006348	78
2	24088	100.0006697	78
2	24167	100.0007348	78
2	24246	100.0007697	78
2	24325	100.0008348	78
2	24404	100.0008697	78
2	24483	100.0009348	78
2	24562	100.0009697	78
2	24641	100.0010348	78
2	24720	100.0010697	78
2	24799	100.0011348	78
2	24878	100.0011697	78
2	24957	100.0012348	78
2	25036	100.0012697	78
2	25115	100.0013348	78
2	25194	100.0013697	78
2	25273	100.0014348	78
2	25352	100.0014697	78
2	25431	100.0015348	78
2	25510	100.0015697	78
2	25589	100.0016348	78
2	25668	100.0016697	78
2	25747	100.0017348	78
2	25826	100.0017697	78
2	25905	100.0018348	78
2	25984	100.0018697	78
2	26063	100.0019348	78
2	26142	100.0019697	78
2	26221	100.0020348	78
2	26300	100.0020697	78
2	26379	100.0021348	78
2	26458	100.0021697	78
2	26537	100.0022348	78
2	26616	100.0022697	78
2	26695	100.0023348	78
2	26774	100.0023697	78
2	26853	100.0024348	78
2	26932	100.0024697	78
2	27011	100.0025348	78
2	27090	100.0025697	78
2	27169	100.0026348	78
2	27248	100.0026697	78
2	27327	100.0027348	78
2	27406	100.0027697	78
2	27485	100.0028348	78
2	27564	100.0028697	78
2	27643	100.0029348	78
2	27722	100.0029697	78
2	27801	100.0030348	78
2	27880	100.0030697	78
2	27959	100.0031348	78
2	28038	100.0031697	78
2	28117	100.0032348	78
2	28196	100.0032697	78
2	28275	100.0033348	78
2	28354	100.0033697	78
2	28433	100.0034348	78
2	28512	100.0034697	78
2	28591	100.0035348	78
2	28670	100.0035697	78
2	28749	100.0036348	78
2	28828	100.0036697	78
2	28907	100.0037348	78
2	28986	100.0037697	78
2	29065	100.0038348	78
2	29144	100.0038697	78
2	29223	100.0039348	78
2	29302	100.0039697	78
2	29381	100.0040348	78
2	29460	100.0040697	78
2	29539	100.0041348	78
2	29618	100.0041697	78
2	29697	100.0042348	78
2	29776	100.0042697	78
2	29855	100.0043348	78
2	29934	100.0043697	78
2	30013	100.0044348	78
2	30092	100.0044697	78
2	30171	100.0045348	78
2	30250	100.0045697	78
2	30329	100.0046348	78
2	30408	100.0046697	78
2	30487	100.0047348	78
2	30566	100.0047697	78
2	30645	100.0048348	78
2	30724	100.0048697	78
2	30803	100.0049348	78
2	30882	100.0049697	78
2	30961	100.0050348	78
2	31040	100.0050697	78
2	31119	100.0051348	78
2	31198	100.0051697	78
2	31277	100.0052348	78
2	31356	100.0052697	78
2	31435	100.0053348	78
2	31514	100.0053697	78
2	31593	100.0054348	78
2	31672	100.0054697	78
2	31751	100.0055348	78
2	31830	100.0055697	78
2	31909	100.0056348	78
2	31988	100.0056697	78
2	32067	100.0057348	78
2	32146	100.0057697	78
2	32225	100.0058348	78
2	32304	100.0058697	78
2	32383	100.0059348	78
2	32462	100.0059697	78
2	32541	100.0060348	78
2	32620	100.0060697	78
2	32699	100.0061348	78
2	32778	100.0061697	78
2	32857	100.0062348	78
2	32936	100.0062697	78
2	33015	100.0063348	78
2	33094	100.0063697	78
2	33173	100.0064348	78
2	33252	100.0064697	78
2	33331	100.0065348	78
2	33410	100.0065697	78
2	33489	100.0066348	78
2	33568	100.0066697	78
2	33647	100.0067348	78
2	33726	100.0067697	78
2	33805	100.0068348	78
2	33884	100.0068697	78
2	33963	100.0069348	78
2	34042	100.0069697	78
2	34121	100.0070348	78
2	34200	100.0070697	78
2	34279	100.0071348	78
2	34358	100.0071697	78
2	34437	100.0072348	78
2	34516	100.0072697	78
2	34595	100.0073348	78
2	34674	100.0073697	78
2	34753	100.0074348	78
2	34832	100.0074697	78
2	34911	100.0075348	78
2	34990	100.0075697	78
2	35069	100.0076348	78
2	35148	100.0076697	78
2	35227	100.0077348	78
2	35306	100.0077697	78
2	35385	100.0078348	78
2	35464	100.0078697	78
2	35543	100.0079348	78
2	35622	100.0079697	78
2	35701	100.0080348	78
2	35780	100.0080697	78
2	35859	100.0081348	78
2	35938	100.0081697	78
2	36017	100.0082348	78
2	36096	100.0082697	78
2	36175	100.0083348	78
2	36254	100.0083697	78
2	36333	100.0084348	78
2	36412	100.0084697	78
2	36491	100.0085348	78
2	36570	100.0085697	78
2	36649	100.0086348	78
2	36728	100.0086697	78
2	36807	100.0087348	78
2	36886	100.0087697	78
2	36965	100.0088348	78
2	37044	100.0088697	78
2	37123	100.0089348	78
2	37202	100.0089697	78
2	37281	100.0090348	78
2	37360	100.0090697	78
2	37439	100.0091348	78
2	37518	100.0091697	78
2	37597	100.0092348	78
2	37676	100.0092697	78
2	37755	100.0093348	78
2	37834	100.0093697	78
2	37913	100.0094348	78
2	37992	100.0094697	78
2	38071	100.0095348	78
2	38150	100.0095697	78
2	38229	100.0096348	78
2	38308	100.0096697	78
2	38387	100.0097348	78
2	38466	100.0097697	78
2	38545	100.0098348	78
2	38624	100.0098697	78
2	38703	100.0099348	78
2	38782	100.0099697	78
2	38861	100.0100348	78
2	38940	100.0100697	78
2	39019	100.0101348	78
2	39098	100.0101697	78
2	39177	100.0102348	78
2	39256	100.0102697	78
2	39335	100.0103348	78
2	39414	100.0103697	78
2	39493	100.0104348	78
2	39572	100.0104697	78
2	39651	100.0105348	78
2	39730	100.0105697	78
2	39809	100.0106348	78
2	39888	100.0106697	78
2	39967	100.0107348	78
2	40046	100.0107697	78
2	40125	100.0108348	78
2	40204	100.0108697	78
2	40283	100.0109348	78
2	40362	100.0109697	78
2	40441	100.0110348	78
2	40520	100.0110697	78
2	40599	100.0111348	78
2	40678	100.0111697	78
2	40757	100.0112348	78
2	40836	100.0112697	78
2	40915	100.0113348	78
2	40994	100.0113697	78
2	41073	100.0114348	78
2	41152	100.0114697	78
2	41231	100.0115348	78
2	41310	100.0115697	78
2	41389	100.0116348	78
2	41468	100.0116697	78
2	41547	100.0117348	78
2	41626	100.0117697	78
2	41705	100.0118348	78
2	41784	100.0118697	78
2	41863	100.0119348	78
2	41942	100.0119697	78
2	42021	100.0120348	78
2	42100	100.0120697	78
2	42179	100.0121348	78
2	42258	100.0121697	78
2	42337	100.0122348	78
2	42416	100.0122697	78
2	42495	100.0123348	78
2	42574	100.0123697	78
2	42653	100.0124348	78
2	42732	100.0124697	78
2	42811	100.0125348	78
2	42890	100.0125697	78
2	42969	100.0126348	78
2	43048	100.0126697	78
2	43127	100.0127348	78
2	43206	100.0127697	78
2	43285	100.0128348	78
2	43364	100.0128697	78
2	43443	100.0129348	78
2	43522	100.0129697	78
2	43601	100.0130348	78
2	43680	100.0130697	78
2	43759	100.0131348	78
2	43838	100.0131697	78
2	43917	100.0132348	78
2	43996	100.0132697	78
2	44075	100.0133348	78
2	44154	100.0133697	78
2	44233	100.0134348	78
2	44312	100.0134697	78
2	44391	100.0135348	78
2	44470	100.0135697	78
2	44549	100.0136348	78
2	44628	100.0136697	78
2	44707	100.0137348	78
2	44786	100.0137697	78
2	44865	100.0138348	78
2	44944	100.0138697	78
2	45023	100.0139348	78
2	45102	100.0139697	78
2	45181	100.0140348	78
2	45260	100.0140697	78
2	45339	100.0141348	78
2	45418	100.0141697	78
2	45497	100.0142348	78
2	45576	100.0142697	78
2	45655	100.0143348	78
2	45734	100.0143697	78
2	45813	100.0144348	78
2	45892	100.0144697	78
3	10	0.08783500417	82
3	1249	1.08783500417	82
3	1453	2.08783500417	82
3	1657	3.08783500417	82
3	1863	4.08783500417	82
3	2081	5.08783500417	82
3	3046	6.08783500417	82
3	3250	7.08783500417	82
3	3454	8.08783500417	82
3	3658	9.08783500417	82
3	3862	10.08783500417	82
3	4222	11.08783500417	82
3	4426	12.08783500417	82
3	4630	13.08783500417	82
3	4834	14.08783500417	82
3	5038	15.08783500417	82
3	5242	16.08783500417	82
3	5446	17.08783500417	82
3	5650	18.08783500417	82
3	5854	19.08783500417	82
3	6058	20.08783500417	82
3	6262	21.08783500417	82
3	6466	22.08783500417	82
3	6670	23.08783500417	82
3	6874	24.08783500417	82
3	7078	25.08783500417	82
3	7282	26.08783500417	82
3	7486	27.08783500417	82
3	7690	28.08783500417	82
3	7894	29.08783500417	82
3	8098	30.08783500417	82
3	8302	31.08783500417	82
3	8506	32.08783500417	82
3	8710	33.08783500417	82
3	8914	34.08783500417	82
3	9118	35.08783500417	82
3	9322	36.08783500417	82
3	9526	37.08783500417	82
3	9730	38.08783500417	82
3	9934	39.08783500417	82
3	10138	40.08783500417	82
3	10342	41.08783500417	82
3	10546	42.08783500417	82
3	10750	43.08783500417	82
3	10954	44.08783500417	82
3	11158	45.08783500417	82
3	11362	46.08783500417	82
3	11566	47.08783500417	82
3	11770	48.08783500417	82
3	11974	49.08783500417	82
3	12178	50.08783500417	82
3	12382	51.08783500417	82
3	12586	52.08783500417	82
3	12790	53.08783500417	82
3	12994	54.08783500417	82
3	13198	55.08783500417	82
3	13402	56.08783500417	82
3	13606	57.08783500417	82
3	13810	58.08783500417	82
3	14014	59.08783500417	82
3	14218	60.08783500417	82
3	14422	61.08783500417	82
3	14626	62.08783500417	82
3	14830	63.08783500417	82
3	15034	64.08783500417	82
3	15238	65.08783500417	82
3	15442	66.08783500417	82
3	15646	67.08783500417	82
3	15850	68.08783500417	82
3	16054	69.08783500417	82
3	16258	70.08783500417	82
3	16462	71.08783500417	82
3	16666	72.08783500417	82
3	16870	73.08783500417	82
3	17074	74.08783500417	82
3	17278	75.08783500417	82
3	17482	76.08783500417	82
3	17686	77.08783500417	82
3	17890	78.08783500417	82
3	18094	79.08783500417	82
3	18298	80.08783500417	82
3	18502	81.08783500417	82
3	18706	82.08783500417	82
3	18910	83.08783500417	82
3	19114	84.08783500417	82
3	19318	85.08783500417	82
3	19522	86.08783500417	82
3	19726	87.08783500417	82
3	19930	88.08783500417	82
3	20134	89.08783500417	82
3	20338	90.08783500417	82
3	20542	91.08783500417	82
3	20746	92.08783500417	82
3	20950	93.08783500417	82
3	21154	94.08783500417	82
3	21358	95.08783500417	82
3	21562	96.08783500417	82
3	21766	97.08783500417	82
3	21970	98.08783500417	82
3	22174	99.08783500417	82
3	22426	100.00001172	64
3	22707	100.00006506	78
3	22791	100.0000729	78
3	22869	100.00008074	78
3	22935	100.00008858	78
3	23016	100.00009996	78
3	23094	100.0001078	78
3	23152	100.00011564	78
3	23194	100.00012348	78
3	23221	100.0001349	78
3	23300	100.0001698	78
3	23379	100.0002349	78
3	23458	100.0002698	78
3	23537	100.0003349	78
3	23616	100.0003698	78
3	23695	100.0004349	78
3	23774	100.0004698	78
3	23853	100.0005349	78
3	23932	100.0005698	78
3	24011	100.0006349	78
3	24090	100.0006698	78
3	24169	100.0007349	78
3	24248	100.0007698	78
3	24327	100.0008349	78
3	24406	100.0008698	78
3	24485	100.0009349	78
3	24564	100.0009698	78
3	24643	100.0010349	78
3	24722	100.0010698	78
3	24801	100.0011349	78
3	24880	100.0011698	78
3	24959	100.0012349	78
3	25038	100.0012698	78
3	25117	100.0013349	78
3	25196	100.0013698	78
3	25275	100.0014349	78
3	25354	100.0014698	78
3	25433	100.0015349	78
3	25512	100.0015698	78
3	25591	100.0016349	78
3	25670	100.0016698	78
3	25749	100.0017349	78
3	25828	100.0017698	78
3	25907	100.0018349	78
3	25986	100.0018698	78
3	26065	100.0019349	78
3	26144	100.0019698	78
3	26223	100.0020349	78
3	26302	100.0020698	78
3	26381	100.0021349	78
3	26460	100.0021698	78
3	26539	100.0022349	78
3	26618	100.0022698	78
3	26697	100.0023349	78
3	26776	100.0023698	78
3	26855	100.0024349	78
3	26934	100.0024698	78
3	27013	100.0025349	78
3	27092	100.0025698	78
3	27171	100.0026349	78
3	27250	100.0026698	78
3	27329	100.0027349	78
3	27408	100.0027698	78
3	27487	100.0028349	78
3	27566	100.0028698	78
3	27645	100.0029349	78
3	27724	100.0029698	78
3	27803	100.0030349	78
3	27882	100.0030698	78
3	27961	100.0031349	78
3	28040	100.0031698	78
3	28119	100.0032349	78
3	28198	100.0032698	78
3	28277	100.0033349	78
3	28356	100.0033698	78
3	28435	100.0034349	78
3	28514	100.0034698	78
3	28593	100.0035349	78
3	28672	100.0035698	78
3	28751	100.0036349	78
3	28830	100.0036698	78
3	28909	100.0037349	78
3	28988	100.0037698	78
3	29067	100.0038349	78
3	29146	100.0038698	78
3	29225	100.0039349	78
3	29304	100.0039698	78
3	29383	100.0040349	78
3	29462	100.0040698	78
3	29541	100.0041349	78
3	29620	100.0041698	78
3	29699	100.0042349	78
3	29778	100.0042698	78
3	29857	100.0043349	78
3	29936	100.0043698	78
3	30015	100.0044349	78
3	30094	100.0044698	78
3	30173	100.0045349	78
3	30252	100.0045698	78
3	30331	100.0046349	78
3	30410	100.0046698	78
3	30489	100.0047349	78
3	30568	100.0047698	78
3	30647	100.0048349	78
3	30726	100.0048698	78
3	30805	100.0049349	78
3	30884	100.0049698	78
3	30963	100.0050349	78
3	31042	100.0050698	78
3	31121	100.0051349	78
3	31200	100.0051698	78
3	31279	100.0052349	78
3	31358	100.0052698	78
3	31437	100.0053349	78
3	31516	100.0053698	78
3	31595	100.0054349	78
3	31674	100.0054698	78
3	31753	100.0055349	78
3	31832	100.0055698	78
3	31911	100.0056349	78
3	31990	100.0056698	78
3	32069	100.0057349	78
3	32148	100.0057698	78
3	32227	100.0058349	78
3	32306	100.0058698	78
3	32385	100.0059349	78
3	32464	100.0059698	78
3	32543	100.0060349	78
3	32622	100.0060698	78
3	32701	100.0061349	78
3	32780	100.0061698	78
3	32859	100.0062349	78
3	32938	100.0062698	78
3	33017	100.0063349	78
3	33096	100.0063698	78
3	33175	100.0064349	78
3	33254	100.0064698	78
3	33333	100.0065349	78
3	33412	100.0065698	78
3	33491	100.0066349	78
3	33570	100.0066698	78
3	33649	100.0067349	78
3	33728	100.0067698	78
3	33807	100.0068349	78
3	33886	100.0068698	78
3	33965	100.0069349	78
3	34044	100.0069698	78
3	34123	100.0070349	78
3	34202	100.0070698	78
3	34281	100.0071349	78
3	34360	100.0071698	78
3	34439	100.0072349	78
3	34518	100.0072698	78
3	34597	100.0073349	78
3	34676	100.0073698	78
3	34755	100.0074349	78
3	34834	100.0074698	78
3	34913	100.0075349	78
3	34992	100.0075698	78
3	35071	100.0076349	78
3	35150	100.0076698	78
3	35229	100.0077349	78
3	35308	100.0077698	78
3	35387	100.0078349	78
3	35466	100.0078698	78
3	35545	100.0079349	78
3	35624	100.0079698	78
3	35703	100.0080349	78
3	35782	100.0080698	78
3	35861	100.0081349	78
3	35940	100.0081698	78
3	36019	100.0082349	78
3	36098	100.0082698	78
3	36177	100.0083349	78
3	36256	100.0083698	78
3	36335	100.0084349	78
3	36414	100.0084698	78
3	36493	100.0085349	78
3	36572	100.0085698	78
3	36651	100.0086349	78
3	36730	100.0086698	78
3	36809	100.0087349	78
3	36888	100.0087698	78
3	36967	100.0088349	78
3	37046	100.0088698	78
3	37125	100.0089349	78
3	37204	100.0089698	78
3	37283	100.0090349	78
3	37362	100.0090698	78
3	37441	100.0091349	78
3	37520	100.0091698	78
3	37599	100.0092349	78
3	37678	100.0092698	78
3	37757	100.0093349	78
3	37836	100.0093698	78
3	37915	100.0094349	78
3	37994	100.0094698	78
3	38073	100.0095349	78
3	38152	100.0095698	78
3	38231	100.0096349	78
3	38310	100.0096698	78
3	38389	100.0097349	78
3	38468	100.0097698	78
3	38547	100.0098349	78
3	38626	100.0098698	78
3	38705	100.0099349	78
3	38784	100.0099698	78
3	38863	100.0100349	78
3	38942	100.0100698	78
3	39021	100.0101349	78
3	39100	100.0101698	78
3	39179	100.0102349	78
3	39258	100.0102698	78
3	39337	100.0103349	78
3	39416	100.0103698	78
3	39495	100.0104349	78
3	39574	100.0104698	78
3	39653	100.0105349	78
3	39732	100.0105698	78
3	39811	100.0106349	78
3	39890	100.0106698	78
3	39969	100.0107349	78
3	40048	100.0107698	78
3	40127	100.0108349	78
3	40206	100.0108698	78
3	40285	100.0109349	78
3	40364	100.0109698	78
3	40443	100.0110349	78
3	40522	100.0110698	78
3	40601	100.0111349	78
3	40680	100.0111698	78
3	40759	100.0112349	78
3	40838	100.0112698	78
3	40917	100.0113349	78
3	40996	100.0113698	78
3	41075	100.0114349	78
3	41154	100.0114698	78
3	41233	100.0115349	78
3	41312	100.0115698	78
3	41391	100.0116349	78
3	41470	100.0116698	78
3	41549	100.0117349	78
3	41628	100.0117698	78
3	41707	100.0118349	78
3	41786	100.0118698	78
3	41865	100.0119349	78
3	41944	100.0119698	78
3	42023	100.0120349	78
3	42102	100.0120698	78
3	42181	100.0121349	78
3	42260	100.0121698	78
3	42339	100.0122349	78
3	42418	100.0122698	78
3	42497	100.0123349	78
3	42576	100.0123698	78
3	42655	100.0124349	78
3	42734	100.0124698	78
3	42813	100.0125349	78
3	42892	100.0125698	78
3	42971	100.0126349	78
3	43050	100.0126698	78
3	43129	100.0127349	78
3	43208	100.0127698	78
3	43287	100.0128349	78
3	43366	100.0128698	78
3	43445	100.0129349	78
3	43524	100.0129698	78
3	43603	100.0130349	78
3	43682	100.0130698	78
3	43761	100.0131349	78
3	43840	100.0131698	78
3	43919	100.0132349	78
3	43998	100.0132698	78
3	44077	100.0133349	78
3	44156	100.0133698	78
3	44235	100.0134349	78
3	44314	100.0134698	78
3	44393	100.0135349	78
3	44472	100.0135698	78
3	44551	100.0136349	78
3	44630	100.0136698	78
3	44709	100.0137349	78
3	44788	100.0137698	78
3	44867	100.0138349	78
3	44946	100.0138698	78
3	45025	100.0139349	78
3	45104	100.0139698	78
3	45183	100.0140349	78
3	45262	100.0140698	78
3	45341	100.0141349	78
3	45420	100.0141698	78
3	45499	100.0142349	78
3	45578	100.0142698	78
3	45657	100.0143349	78
3	45736	100.0143698	78
3	45815	100.0144349	78
3	45894	100.0144698	78
4	10	0.08783500417	82
4	1249	1.08783500417	82
4	1453	2.08783500417	82
4	1657	3.08783500417	82
4	1863	4.08783500417	82
4	2081	5.08783500417	82
4	3046	6.08783500417	82
4	3250	7.08783500417	82
4	3454	8.08783500417	82
4	3658	9.08783500417	82
4	3862	10.08783500417	82
4	4222	11.08783500417	82
4	4426	12.08783500417	82
4	4630	13.08783500417	82
4	4834	14.08783500417	82
4	5038	15.08783500417	82
4	5242	16.08783500417	82
4	5446	17.08783500417	82
4	5650	18.08783500417	82
4	5854	19.08783500417	82
4	6058	20.08783500417	82
4	6262	21.08783500417	82
4	6466	22.08783500417	82
4	6670	23.08783500417	82
4	6874	24.08783500417	82
4	7078	25.08783500417	82
4	7282	26.08783500417	82
4	7486	27.08783500417	82
4	7690	28.08783500417	82
4	7894	29.08783500417	82
4	8098	30.08783500417	82
4	8302	31.08783500417	82
4	8506	32.08783500417	82
4	8710	33.08783500417	82
4	8914	34.08783500417	82
4	9118	35.08783500417	82
4	9322	36.08783500417	82
4	9526	37.08783500417	82
4	9730	38.08783500417	82
4	9934	39.08783500417	82
4	10138	40.08783500417	82
4	10342	41.08783500417	82
4	10546	42.08783500417	82
4	10750	43.08783500417	82
4	10954	44.08783500417	82
4	11158	45.08783500417	82
4	11362	46.08783500417	82
4	11566	47.08783500417	82
4	11770	48.08783500417	82
4	11974	49.08783500417	82
4	12178	50.08783500417	82
4	12382	51.08783500417	82
4	12586	52.08783500417	82
4	12790	53.08783500417	82
4	12994	54.08783500417	82
4	13198	55.08783500417	82
4	13402	56.08783500417	82
4	13606	57.08783500417	82
4	13810	58.08783500417	82
4	14014	59.08783500417	82
4	14218	60.08783500417	82
4	14422	61.08783500417	82
4	14626	62.08783500417	82
4	14830	63.08783500417	82
4	15034	64.08783500417	82
4	15238	65.08783500417	82
4	15442	66.08783500417	82
4	15646	67.08783500417	82
4	15850	68.08783500417	82
4	16054	69.08783500417	82
4	16258	70.08783500417	82
4	16462	71.08783500417	82
4	16666	72.08783500417	82
4	16870	73.08783500417	82
4	17074	74.08783500417	82
4	17278	75.08783500417	82
4	17482	76.08783500417	82
4	17686	77.08783500417	82
4	17890	78.08783500417	82
4	18094	79.08783500417	82
4	18298	80.08783500417	82
4	18502	81.08783500417	82
4	18706	82.08783500417	82
4	18910	83.08783500417	82
4	19114	84.08783500417	82
4	19318	85.08783500417	82
4	19522	86.08783500417	82
4	19726	87.08783500417	82
4	19930	88.08783500417	82
4	20134	89.08783500417	82
4	20338	90.08783500417	82
4	20542	91.08783500417	82
4	20746	92.08783500417	82
4	20950	93.08783500417	82
4	21154	94.08783500417	82
4	21358	95.08783500417	82
4	21562	96.08783500417	82
4	21766	97.08783500417	82
4	21970	98.08783500417	82
4	22174	99.08783500417	82
4	22426	100.00001172	64
4	22707	100.00006506	78
4	22791	100.0000729	78
4	22869	100.00008074	78
4	22935	100.00008858	78
4	23016	100.00009996	78
4	23094	100.0001078	78
4	23152	100.00011564	78
4	23194	100.00012348	78
4	23221	100.0001349	78
4	23300	100.0001698	78
4	23379	100.0002349	78
4	23458	100.0002698	78
4	23537	100.0003349	78
4	23616	100.0003698	78
4	23695	100.0004349	78
4	23774	100.0004698	78
4	23853	100.0005349	78
4	23932	100.0005698	78
4	24011	100.0006349	78
4	24090	100.0006698	78
4	24169	100.0007349	78
4	24248	100.0007698	78
4	24327	100.0008349	78
4	24406	100.0008698	78
4	24485	100.0009349	78
4	24564	100.0009698	78
4	24643	100.0010349	78
4	24722	100.0010698	78
4	24801	100.0011349	78
4	24880	100.0011698	78
4	24959	100.0012349	78
4	25038	100.0012698	78
4	25117	100.0013349	78
4	25196	100.0013698	78
4	25275	100.0014349	78
4	25354	100.0014698	78
4	25433	100.0015349	78
4	25512	100.0015698	78
4	25591	100.0016349	78
4	25670	100.0016698	78
4	25749	100.0017349	78
4	25828	100.0017698	78
4	25907	100.0018349	78
4	25986	100.0018698	78
4	26065	100.0019349	78
4	26144	100.0019698	78
4	26223	100.0020349	78
4	26302	100.0020698	78
4	26381	100.0021349	78
4	26460	100.0021698	78
4	26539	100.0022349	78
4	26618	100.0022698	78
4	26697	100.0023349	78
4	26776	100.0023698	78
4	26855	100.0024349	78
4	26934	100.0024698	78
4	27013	100.0025349	78
4	27092	100.0025698	78
4	27171	100.0026349	78
4	27250	100.0026698	78
4	27329	100.0027349	78
4	27408	100.0027698	78
4	27487	100.0028349	78
4	27566	100.0028698	78
4	27645	100.0029349	78
4	27724	100.0029698	78
4	27803	100.0030349	78
4	27882	100.0030698	78
4	27961	100.0031349	78
4	28040	100.0031698	78
4	28119	100.0032349	78
4	28198	100.0032698	78
4	28277	100.0033349	78
4	28356	100.0033698	78
4	28435	100.0034349	78
4	28514	100.0034698	78
4	28593	100.0035349	78
4	28672	100.0035698	78
4	28751	100.0036349	78
4	28830	100.0036698	78
4	28909	100.0037349	78
4	28988	100.0037698	78
4	29067	100.0038349	78
4	29146	100.0038698	78
4	29225	100.0039349	78
4	29304	100.0039698	78
4	29383	100.0040349	78
4	29462	100.0040698	78
4	29541	100.0041349	78
4	29620	100.0041698	78
4	29699	100.0042349	78
4	29778	100.0042698	78
4	29857	100.0043349	78
4	29936	100.0043698	78
4	30015	100.0044349	78
4	30094	100.0044698	78
4	30173	100.0045349	78
4	30252	100.0045698	78
4	30331	100.0046349	78
4	30410	100.0046698	78
4	30489	100.0047349	78
4	30568	100.0047698	78
4	30647	100.0048349	78
4	30726	100.0048698	78
4	30805	100.0049349	78
4	30884	100.0049698	78
4	30963	100.0050349	78
4	31042	100.0050698	78
4	31121	100.0051349	78
4	31200	100.0051698	78
4	31279	100.0052349	78
4	31358	100.0052698	78
4	31437	100.0053349	78
4	31516	100.0053698	78
4	31595	100.0054349	78
4	31674	100.0054698	78
4	31753	100.0055349	78
4	31832	100.0055698	78
4	31911	100.0056349	78
4	31990	100.0056698	78
4	32069	100.0057349	78
4	32148	100.0057698	78
4	32227	100.0058349	78
4	32306	100.0058698	78
4	32385	100.0059349	78
4	32464	100.0059698	78
4	32543	100.0060349	78
4	32622	100.0060698	78
4	32701	100.0061349	78
4	32780	100.0061698	78
4	32859	100.0062349	78
4	32938	100.0062698	78
4	33017	100.0063349	78
4	33096	100.0063698	78
4	33175	100.0064349	78
4	33254	100.0064698	78
4	33333	100.0065349	78
[...]
173	23201	87.8	0
173	23201	87.9	0
173	23201	88	0
173	23201	88.1	0
173	23201	88.2	0
173	23201	88.3	0
173	23201	88.4	0
173	23201	88.5	0
173	23201	88.6	0
173	23201	88.7	0
173	23201	88.8	0
173	23201	88.9	0
173	23201	89	0
173	23201	89.1	0
173	23201	89.2	0
173	23201	89.3	0
173	23201	89.4	0
173	23201	89.5	0
173	23201	89.6	0
173	23201	89.7	0
173	23201	89.8	0
173	23201	89.9	0
173	23201	90	0
173	23201	90.1	0
173	23201	90.2	0
173	23201	90.3	0
173	23201	90.4	0
173	23201	90.5	0
173	23201	90.6	0
173	23201	90.7	0
173	23201	90.8	0
173	23201	90.9	0
173	23201	91	0
173	23201	91.1	0
173	23201	91.2	0
173	23201	91.3	0
173	23201	91.4	0
173	23201	91.5	0
173	23201	91.6	0
173	23201	91.7	0
173	23201	91.8	0
173	23201	91.9	0
173	23201	92	0
173	23201	92.1	0
173	23201	92.2	0
173	23201	92.3	0
173	23201	92.4	0
173	23201	92.5	0
173	23201	92.6	0
173	23201	92.7	0
173	23201	92.8	0
173	23201	92.9	0
173	23201	93	0
173	23201	93.1	0
173	23201	93.2	0
173	23201	93.3	0
173	23201	93.4	0
173	23201	93.5	0
173	23201	93.6	0
173	23201	93.7	0
173	23201	93.8	0
173	23201	93.9	0
173	23201	94	0
173	23201	94.1	0
173	23201	94.2	0
173	23201	94.3	0
173	23201	94.4	0
173	23201	94.5	0
173	23201	94.6	0
173	23201	94.7	0
173	23201	94.8	0
173	23201	94.9	0
173	23201	95	0
173	23201	95.1	0
173	23201	95.2	0
173	23201	95.3	0
173	23201	95.4	0
173	23201	95.5	0
173	23201	95.6	0
173	23201	95.7	0
173	23201	95.8	0
173	23201	95.9	0
173	23201	96	0
173	23201	96.1	0
173	23201	96.2	0
173	23201	96.3	0
173	23201	96.4	0
173	23201	96.5	0
173	23201	96.6	0
173	23201	96.7	0
173	23201	96.8	0
173	23201	96.9	0
173	23201	97	0
173	23201	97.1	0
173	23201	97.2	0
173	23201	97.3	0
173	23201	97.4	0
173	23201	97.5	0
173	23201	97.6	0
173	23201	97.7	0
173	23201	97.8	0
173	23201	97.9	0
173	23201	98	0
173	23201	98.1	0
173	23201	98.2	0
173	23201	98.3	0
173	23201	98.4	0
173	23201	98.5	0
173	23201	98.6	0
173	23201	98.7	0
173	23201	98.8	0
173	23201	98.9	0
173	23201	99	0
173	23201	99.1	0
173	23201	99.2	0
173	23201	99.3	0
173	23201	99.4	0
173	23201	99.5	0
173	23201	99.6	0
173	23201	99.7	0
173	23201	99.8	0
173	23201	99.9	0
173	23201	100	0
174	23201	100.00012348	0.00012348
175	23202	100.00012348	32
176	23202	0.1	0
176	23202	0.2	0
176	23202	0.3	0
176	23202	0.4	0
176	23202	0.5	0
176	23202	0.6	0
176	23202	0.7	0
176	23202	0.8	0
176	23202	0.9	0
176	23202	1	0
176	23202	1.1	0
176	23202	1.2	0
176	23202	1.3	0
176	23202	1.4	0
176	23202	1.5	0
176	23202	1.6	0
176	23202	1.7	0
176	23202	1.8	0
176	23202	1.9	0
176	23202	2	0
176	23202	2.1	0
176	23202	2.2	0
176	23202	2.3	0
176	23202	2.4	0
176	23202	2.5	0
176	23202	2.6	0
176	23202	2.7	0
176	23202	2.8	0
176	23202	2.9	0
176	23202	3	0
176	23202	3.1	0
176	23202	3.2	0
176	23202	3.3	0
176	23202	3.4	0
176	23202	3.5	0
176	23202	3.6	0
176	23202	3.7	0
176	23202	3.8	0
176	23202	3.9	0
176	23202	4	0
176	23202	4.1	0
176	23202	4.2	0
176	23202	4.3	0
176	23202	4.4	0
176	23202	4.5	0
176	23202	4.6	0
176	23202	4.7	0
176	23202	4.8	0
176	23202	4.9	0
176	23202	5	0
176	23202	5.1	0
176	23202	5.2	0
176	23202	5.3	0
176	23202	5.4	0
176	23202	5.5	0
176	23202	5.6	0
176	23202	5.7	0
176	23202	5.8	0
176	23202	5.9	0
176	23202	6	0
176	23202	6.1	0
176	23202	6.2	0
176	23202	6.3	0
176	23202	6.4	0
176	23202	6.5	0
176	23202	6.6	0
176	23202	6.7	0
176	23202	6.8	0
176	23202	6.9	0
176	23202	7	0
176	23202	7.1	0
176	23202	7.2	0
176	23202	7.3	0
176	23202	7.4	0
176	23202	7.5	0
176	23202	7.6	0
176	23202	7.7	0
176	23202	7.8	0
176	23202	7.9	0
176	23202	8	0
176	23202	8.1	0
176	23202	8.2	0
176	23202	8.3	0
176	23202	8.4	0
176	23202	8.5	0
176	23202	8.6	0
176	23202	8.7	0
176	23202	8.8	0
176	23202	8.9	0
176	23202	9	0
176	23202	9.1	0
176	23202	9.2	0
176	23202	9.3	0
176	23202	9.4	0
176	23202	9.5	0
176	23202	9.6	0
176	23202	9.7	0
176	23202	9.8	0
176	23202	9.9	0
176	23202	10	0
176	23202	10.1	0
176	23202	10.2	0
176	23202	10.3	0
176	23202	10.4	0
176	23202	10.5	0
176	23202	10.6	0
176	23202	10.7	0
176	23202	10.8	0
176	23202	10.9	0
176	23202	11	0
176	23202	11.1	0
176	23202	11.2	0
176	23202	11.3	0
176	23202	11.4	0
176	23202	11.5	0
176	23202	11.6	0
176	23202	11.7	0
176	23202	11.8	0
176	23202	11.9	0
176	23202	12	0
176	23202	12.1	0
176	23202	12.2	0
176	23202	12.3	0
176	23202	12.4	0
176	23202	12.5	0
176	23202	12.6	0
176	23202	12.7	0
176	23202	12.8	0
176	23202	12.9	0
176	23202	13	0
176	23202	13.1	0
176	23202	13.2	0
176	23202	13.3	0
176	23202	13.4	0
176	23202	13.5	0
176	23202	13.6	0
176	23202	13.7	0
176	23202	13.8	0
176	23202	13.9	0
176	23202	14	0
176	23202	14.1	0
176	23202	14.2	0
176	23202	14.3	0
176	23202	14.4	0
176	23202	14.5	0
176	23202	14.6	0
176	23202	14.7	0
176	23202	14.8	0
176	23202	14.9	0
176	23202	15	0
176	23202	15.1	0
176	23202	15.2	0
176	23202	15.3	0
176	23202	15.4	0
176	23202	15.5	0
176	23202	15.6	0
176	23202	15.7	0
176	23202	15.8	0
176	23202	15.9	0
176	23202	16	0
176	23202	16.1	0
176	23202	16.2	0
176	23202	16.3	0
176	23202	16.4	0
176	23202	16.5	0
176	23202	16.6	0
176	23202	16.7	0
176	23202	16.8	0
176	23202	16.9	0
176	23202	17	0
176	23202	17.1	0
176	23202	17.2	0
176	23202	17.3	0
176	23202	17.4	0
176	23202	17.5	0
176	23202	17.6	0
176	23202	17.7	0
176	23202	17.8	0
176	23202	17.9	0
176	23202	18	0
176	23202	18.1	0
176	23202	18.2	0
176	23202	18.3	0
176	23202	18.4	0
176	23202	18.5	0
176	23202	18.6	0
176	23202	18.7	0
176	23202	18.8	0
176	23202	18.9	0
176	23202	19	0
176	23202	19.1	0
176	23202	19.2	0
176	23202	19.3	0
176	23202	19.4	0
176	23202	19.5	0
176	23202	19.6	0
176	23202	19.7	0
176	23202	19.8	0
176	23202	19.9	0
176	23202	20	0
176	23202	20.1	0
176	23202	20.2	0
176	23202	20.3	0
176	23202	20.4	0
176	23202	20.5	0
176	23202	20.6	0
176	23202	20.7	0
176	23202	20.8	0
176	23202	20.9	0
176	23202	21	0
176	23202	21.1	0
176	23202	21.2	0
176	23202	21.3	0
176	23202	21.4	0
176	23202	21.5	0
176	23202	21.6	0
176	23202	21.7	0
176	23202	21.8	0
176	23202	21.9	0
176	23202	22	0
176	23202	22.1	0
176	23202	22.2	0
176	23202	22.3	0
176	23202	22.4	0
176	23202	22.5	0
176	23202	22.6	0
176	23202	22.7	0
176	23202	22.8	0
176	23202	22.9	0
176	23202	23	0
176	23202	23.1	0
176	23202	23.2	0
176	23202	23.3	0
176	23202	23.4	0
176	23202	23.5	0
176	23202	23.6	0
176	23202	23.7	0
176	23202	23.8	0
176	23202	23.9	0
176	23202	24	0
176	23202	24.1	0
176	23202	24.2	0
176	23202	24.3	0
176	23202	24.4	0
176	23202	24.5	0
176	23202	24.6	0
176	23202	24.7	0
176	23202	24.8	0
176	23202	24.9	0
176	23202	25	0
176	23202	25.1	0
176	23202	25.2	0
176	23202	25.3	0
176	23202	25.4	0
176	23202	25.5	0
176	23202	25.6	0
176	23202	25.7	0
176	23202	25.8	0
176	23202	25.9	0
176	23202	26	0
176	23202	26.1	0
176	23202	26.2	0
176	23202	26.3	0
176	23202	26.4	0
176	23202	26.5	0
176	23202	26.6	0
176	23202	26.7	0
176	23202	26.8	0
176	23202	26.9	0
176	23202	27	0
176	23202	27.1	0
176	23202	27.2	0
176	23202	27.3	0
176	23202	27.4	0
176	23202	27.5	0
176	23202	27.6	0
176	23202	27.7	0
176	23202	27.8	0
176	23202	27.9	0
176	23202	28	0
176	23202	28.1	0
176	23202	28.2	0
176	23202	28.3	0
176	23202	28.4	0
176	23202	28.5	0
176	23202	28.6	0
176	23202	28.7	0
176	23202	28.8	0
176	23202	28.9	0
176	23202	29	0
176	23202	29.1	0
176	23202	29.2	0
176	23202	29.3	0
176	23202	29.4	0
176	23202	29.5	0
176	23202	29.6	0
176	23202	29.7	0
176	23202	29.8	0
176	23202	29.9	0
176	23202	30	0
176	23202	30.1	0
176	23202	30.2	0
176	23202	30.3	0
176	23202	30.4	0
176	23202	30.5	0
176	23202	30.6	0
176	23202	30.7	0
176	23202	30.8	0
176	23202	30.9	0
176	23202	31	0
176	23202	31.1	0
176	23202	31.2	0
176	23202	31.3	0
176	23202	31.4	0
176	23202	31.5	0
176	23202	31.6	0
176	23202	31.7	0
176	23202	31.8	0
176	23202	31.9	0
176	23202	32	0
176	23202	32.1	0
176	23202	32.2	0
176	23202	32.3	0
176	23202	32.4	0
176	23202	32.5	0
176	23202	32.6	0
176	23202	32.7	0
176	23202	32.8	0
176	23202	32.9	0
176	23202	33	0
176	23202	33.1	0
176	23202	33.2	0
176	23202	33.3	0
176	23202	33.4	0
176	23202	33.5	0
176	23202	33.6	0
176	23202	33.7	0
176	23202	33.8	0
176	23202	33.9	0
176	23202	34	0
176	23202	34.1	0
176	23202	34.2	0
176	23202	34.3	0
176	23202	34.4	0
176	23202	34.5	0
176	23202	34.6	0
176	23202	34.7	0
176	23202	34.8	0
176	23202	34.9	0
176	23202	35	0
176	23202	35.1	0
176	23202	35.2	0
176	23202	35.3	0
176	23202	35.4	0
176	23202	35.5	0
176	23202	35.6	0
176	23202	35.7	0
176	23202	35.8	0
176	23202	35.9	0
176	23202	36	0
176	23202	36.1	0
176	23202	36.2	0
176	23202	36.3	0
176	23202	36.4	0
176	23202	36.5	0
176	23202	36.6	0
176	23202	36.7	0
176	23202	36.8	0
176	23202	36.9	0
176	23202	37	0
176	23202	37.1	0
176	23202	37.2	0
176	23202	37.3	0
176	23202	37.4	0
176	23202	37.5	0
176	23202	37.6	0
176	23202	37.7	0
176	23202	37.8	0
176	23202	37.9	0
176	23202	38	0
176	23202	38.1	0
176	23202	38.2	0
176	23202	38.3	0
176	23202	38.4	0
176	23202	38.5	0
176	23202	38.6	0
176	23202	38.7	0
176	23202	38.8	0
176	23202	38.9	0
176	23202	39	0
176	23202	39.1	0
176	23202	39.2	0
176	23202	39.3	0
176	23202	39.4	0
176	23202	39.5	0
176	23202	39.6	0
176	23202	39.7	0
176	23202	39.8	0
176	23202	39.9	0
176	23202	40	0
176	23202	40.1	0
176	23202	40.2	0
176	23202	40.3	0
176	23202	40.4	0
176	23202	40.5	0
176	23202	40.6	0
176	23202	40.7	0
176	23202	40.8	0
176	23202	40.9	0
176	23202	41	0
176	23202	41.1	0
176	23202	41.2	0
176	23202	41.3	0
176	23202	41.4	0
176	23202	41.5	0
176	23202	41.6	0
176	23202	41.7	0
176	23202	41.8	0
176	23202	41.9	0
176	23202	42	0
176	23202	42.1	0
176	23202	42.2	0
176	23202	42.3	0
176	23202	42.4	0
176	23202	42.5	0
176	23202	42.6	0
176	23202	42.7	0
176	23202	42.8	0
176	23202	42.9	0
176	23202	43	0
176	23202	43.1	0
176	23202	43.2	0
176	23202	43.3	0
176	23202	43.4	0
176	23202	43.5	0
176	23202	43.6	0
176	23202	43.7	0
176	23202	43.8	0
176	23202	43.9	0
176	23202	44	0
176	23202	44.1	0
176	23202	44.2	0
176	23202	44.3	0
176	23202	44.4	0
176	23202	44.5	0
176	23202	44.6	0
176	23202	44.7	0
176	23202	44.8	0
176	23202	44.9	0
176	23202	45	0
176	23202	45.1	0
176	23202	45.2	0
176	23202	45.3	0
176	23202	45.4	0
176	23202	45.5	0
176	23202	45.6	0
176	23202	45.7	0
176	23202	45.8	0
176	23202	45.9	0
176	23202	46	0
176	23202	46.1	0
176	23202	46.2	0
176	23202	46.3	0
176	23202	46.4	0
176	23202	46.5	0
176	23202	46.6	0
176	23202	46.7	0
176	23202	46.8	0
176	23202	46.9	0
176	23202	47	0
176	23202	47.1	0
176	23202	47.2	0
176	23202	47.3	0
176	23202	47.4	0
176	23202	47.5	0
176	23202	47.6	0
176	23202	47.7	0
176	23202	47.8	0
176	23202	47.9	0
176	23202	48	0
176	23202	48.1	0
176	23202	48.2	0
176	23202	48.3	0
176	23202	48.4	0
176	23202	48.5	0
176	23202	48.6	0
176	23202	48.7	0
176	23202	48.8	0
176	23202	48.9	0
176	23202	49	0
176	23202	49.1	0
176	23202	49.2	0
176	23202	49.3	0
176	23202	49.4	0
176	23202	49.5	0
176	23202	49.6	0
176	23202	49.7	0
176	23202	49.8	0
176	23202	49.9	0
176	23202	50	0
176	23202	50.1	0
176	23202	50.2	0
176	23202	50.3	0
176	23202	50.4	0
176	23202	50.5	0
176	23202	50.6	0
176	23202	50.7	0
176	23202	50.8	0
176	23202	50.9	0
176	23202	51	0
176	23202	51.1	0
176	23202	51.2	0
176	23202	51.3	0
176	23202	51.4	0
176	23202	51.5	0
176	23202	51.6	0
176	23202	51.7	0
176	23202	51.8	0
176	23202	51.9	0
176	23202	52	0
176	23202	52.1	0
176	23202	52.2	0
176	23202	52.3	0
176	23202	52.4	0
176	23202	52.5	0
176	23202	52.6	0
176	23202	52.7	0
176	23202	52.8	0
176	23202	52.9	0
176	23202	53	0
176	23202	53.1	0
176	23202	53.2	0
176	23202	53.3	0
176	23202	53.4	0
176	23202	53.5	0
176	23202	53.6	0
176	23202	53.7	0
176	23202	53.8	0
176	23202	53.9	0
176	23202	54	0
176	23202	54.1	0
176	23202	54.2	0
176	23202	54.3	0
176	23202	54.4	0
176	23202	54.5	0
176	23202	54.6	0
176	23202	54.7	0
176	23202	54.8	0
176	23202	54.9	0
176	23202	55	0
176	23202	55.1	0
176	23202	55.2	0
176	23202	55.3	0
176	23202	55.4	0
176	23202	55.5	0
176	23202	55.6	0
176	23202	55.7	0
176	23202	55.8	0
176	23202	55.9	0
176	23202	56	0
176	23202	56.1	0
176	23202	56.2	0
176	23202	56.3	0
176	23202	56.4	0
176	23202	56.5	0
176	23202	56.6	0
176	23202	56.7	0
176	23202	56.8	0
176	23202	56.9	0
176	23202	57	0
176	23202	57.1	0
176	23202	57.2	0
176	23202	57.3	0
176	23202	57.4	0
176	23202	57.5	0
176	23202	57.6	0
176	23202	57.7	0
176	23202	57.8	0
176	23202	57.9	0
176	23202	58	0
176	23202	58.1	0
176	23202	58.2	0
176	23202	58.3	0
176	23202	58.4	0
176	23202	58.5	0
176	23202	58.6	0
176	23202	58.7	0
176	23202	58.8	0
176	23202	58.9	0
176	23202	59	0
176	23202	59.1	0
176	23202	59.2	0
176	23202	59.3	0
176	23202	59.4	0
176	23202	59.5	0
176	23202	59.6	0
176	23202	59.7	0
176	23202	59.8	0
176	23202	59.9	0
176	23202	60	0
176	23202	60.1	0
176	23202	60.2	0
176	23202	60.3	0
176	23202	60.4	0
176	23202	60.5	0
176	23202	60.6	0
176	23202	60.7	0
176	23202	60.8	0
176	23202	60.9	0
176	23202	61	0
176	23202	61.1	0
176	23202	61.2	0
176	23202	61.3	0
176	23202	61.4	0
176	23202	61.5	0
176	23202	61.6	0
176	23202	61.7	0
176	23202	61.8	0
176	23202	61.9	0
176	23202	62	0
176	23202	62.1	0
176	23202	62.2	0
176	23202	62.3	0
176	23202	62.4	0
176	23202	62.5	0
176	23202	62.6	0
176	23202	62.7	0
176	23202	62.8	0
176	23202	62.9	0
176	23202	63	0
176	23202	63.1	0
176	23202	63.2	0
176	23202	63.3	0
176	23202	63.4	0
176	23202	63.5	0
176	23202	63.6	0
176	23202	63.7	0
176	23202	63.8	0
176	23202	63.9	0
176	23202	64	0
176	23202	64.1	0
176	23202	64.2	0
176	23202	64.3	0
176	23202	64.4	0
176	23202	64.5	0
176	23202	64.6	0
176	23202	64.7	0
176	23202	64.8	0
176	23202	64.9	0
176	23202	65	0
176	23202	65.1	0
176	23202	65.2	0
176	23202	65.3	0
176	23202	65.4	0
176	23202	65.5	0
176	23202	65.6	0
176	23202	65.7	0
176	23202	65.8	0
176	23202	65.9	0
176	23202	66	0
176	23202	66.1	0
176	23202	66.2	0
176	23202	66.3	0
176	23202	66.4	0
176	23202	66.5	0
176	23202	66.6	0
176	23202	66.7	0
176	23202	66.8	0
176	23202	66.9	0
176	23202	67	0
176	23202	67.1	0
176	23202	67.2	0
176	23202	67.3	0
176	23202	67.4	0
176	23202	67.5	0
176	23202	67.6	0
176	23202	67.7	0
176	23202	67.8	0
176	23202	67.9	0
176	23202	68	0
176	23202	68.1	0
176	23202	68.2	0
176	23202	68.3	0
176	23202	68.4	0
176	23202	68.5	0
176	23202	68.6	0
176	23202	68.7	0
176	23202	68.8	0
176	23202	68.9	0
176	23202	69	0
176	23202	69.1	0
176	23202	69.2	0
176	23202	69.3	0
176	23202	69.4	0
176	23202	69.5	0
176	23202	69.6	0
176	23202	69.7	0
176	23202	69.8	0
176	23202	69.9	0
176	23202	70	0
176	23202	70.1	0
176	23202	70.2	0
176	23202	70.3	0
176	23202	70.4	0
176	23202	70.5	0
176	23202	70.6	0
176	23202	70.7	0
176	23202	70.8	0
176	23202	70.9	0
176	23202	71	0
176	23202	71.1	0
176	23202	71.2	0
176	23202	71.3	0
176	23202	71.4	0
176	23202	71.5	0
176	23202	71.6	0
176	23202	71.7	0
176	23202	71.8	0
176	23202	71.9	0
176	23202	72	0
176	23202	72.1	0
176	23202	72.2	0
176	23202	72.3	0
176	23202	72.4	0
176	23202	72.5	0
176	23202	72.6	0
176	23202	72.7	0
176	23202	72.8	0
176	23202	72.9	0
176	23202	73	0
176	23202	73.1	0
176	23202	73.2	0
176	23202	73.3	0
176	23202	73.4	0
176	23202	73.5	0
176	23202	73.6	0
176	23202	73.7	0
176	23202	73.8	0
176	23202	73.9	0
176	23202	74	0
176	23202	74.1	0
176	23202	74.2	0
176	23202	74.3	0
176	23202	74.4	0
176	23202	74.5	0
176	23202	74.6	0
176	23202	74.7	0
176	23202	74.8	0
176	23202	74.9	0
176	23202	75	0
176	23202	75.1	0
176	23202	75.2	0
176	23202	75.3	0
176	23202	75.4	0
176	23202	75.5	0
176	23202	75.6	0
176	23202	75.7	0
176	23202	75.8	0
176	23202	75.9	0
176	23202	76	0
176	23202	76.1	0
176	23202	76.2	0
176	23202	76.3	0
176	23202	76.4	0
176	23202	76.5	0
176	23202	76.6	0
176	23202	76.7	0
176	23202	76.8	0
176	23202	76.9	0
176	23202	77	0
176	23202	77.1	0
176	23202	77.2	0
176	23202	77.3	0
176	23202	77.4	0
176	23202	77.5	0
176	23202	77.6	0
176	23202	77.7	0
176	23202	77.8	0
176	23202	77.9	0
176	23202	78	0
176	23202	78.1	0
176	23202	78.2	0
176	23202	78.3	0
176	23202	78.4	0
176	23202	78.5	0
176	23202	78.6	0
176	23202	78.7	0
176	23202	78.8	0
176	23202	78.9	0
176	23202	79	0
176	23202	79.1	0
176	23202	79.2	0
176	23202	79.3	0
176	23202	79.4	0
176	23202	79.5	0
176	23202	79.6	0
176	23202	79.7	0
176	23202	79.8	0
176	23202	79.9	0
176	23202	80	0
176	23202	80.1	0
176	23202	80.2	0
176	23202	80.3	0
176	23202	80.4	0
176	23202	80.5	0
176	23202	80.6	0
176	23202	80.7	0
176	23202	80.8	0
176	23202	80.9	0
176	23202	81	0
176	23202	81.1	0
176	23202	81.2	0
176	23202	81.3	0
176	23202	81.4	0
176	23202	81.5	0
176	23202	81.6	0
176	23202	81.7	0
176	23202	81.8	0
176	23202	81.9	0
176	23202	82	0
176	23202	82.1	0
176	23202	82.2	0
176	23202	82.3	0
176	23202	82.4	0
176	23202	82.5	0
176	23202	82.6	0
176	23202	82.7	0
176	23202	82.8	0
176	23202	82.9	0
176	23202	83	0
176	23202	83.1	0
176	23202	83.2	0
176	23202	83.3	0
176	23202	83.4	0
176	23202	83.5	0
176	23202	83.6	0
176	23202	83.7	0
176	23202	83.8	0
176	23202	83.9	0
176	23202	84	0
176	23202	84.1	0
176	23202	84.2	0
176	23202	84.3	0
176	23202	84.4	0
176	23202	84.5	0
176	23202	84.6	0
176	23202	84.7	0
176	23202	84.8	0
176	23202	84.9	0
176	23202	85	0
176	23202	85.1	0
176	23202	85.2	0
176	23202	85.3	0
176	23202	85.4	0
176	23202	85.5	0
176	23202	85.6	0
176	23202	85.7	0
176	23202	85.8	0
176	23202	85.9	0
176	23202	86	0
176	23202	86.1	0
176	23202	86.2	0
176	23202	86.3	0
176	23202	86.4	0
176	23202	86.5	0
176	23202	86.6	0
176	23202	86.7	0
176	23202	86.8	0
176	23202	86.9	0
176	23202	87	0
176	23202	87.1	0
176	23202	87.2	0
176	23202	87.3	0
176	23202	87.4	0
176	23202	87.5	0
176	23202	87.6	0
176	23202	87.7	0
176	23202	87.8	0
176	23202	87.9	0
176	23202	88	0
176	23202	88.1	0
176	23202	88.2	0
176	23202	88.3	0
176	23202	88.4	0
176	23202	88.5	0
176	23202	88.6	0
176	23202	88.7	0
176	23202	88.8	0
176	23202	88.9	0
176	23202	89	0
176	23202	89.1	0
176	23202	89.2	0
176	23202	89.3	0
176	23202	89.4	0
176	23202	89.5	0
176	23202	89.6	0
176	23202	89.7	0
176	23202	89.8	0
176	23202	89.9	0
176	23202	90	0
176	23202	90.1	0
176	23202	90.2	0
176	23202	90.3	0
176	23202	90.4	0
176	23202	90.5	0
176	23202	90.6	0
176	23202	90.7	0
176	23202	90.8	0
176	23202	90.9	0
176	23202	91	0
176	23202	91.1	0
176	23202	91.2	0
176	23202	91.3	0
176	23202	91.4	0
176	23202	91.5	0
176	23202	91.6	0
176	23202	91.7	0
176	23202	91.8	0
176	23202	91.9	0
176	23202	92	0
176	23202	92.1	0
176	23202	92.2	0
176	23202	92.3	0
176	23202	92.4	0
176	23202	92.5	0
176	23202	92.6	0
176	23202	92.7	0
176	23202	92.8	0
176	23202	92.9	0
176	23202	93	0
176	23202	93.1	0
176	23202	93.2	0
176	23202	93.3	0
176	23202	93.4	0
176	23202	93.5	0
176	23202	93.6	0
176	23202	93.7	0
176	23202	93.8	0
176	23202	93.9	0
176	23202	94	0
176	23202	94.1	0
176	23202	94.2	0
176	23202	94.3	0
176	23202	94.4	0
176	23202	94.5	0
176	23202	94.6	0
176	23202	94.7	0
176	23202	94.8	0
176	23202	94.9	0
176	23202	95	0
176	23202	95.1	0
176	23202	95.2	0
176	23202	95.3	0
176	23202	95.4	0
176	23202	95.5	0
176	23202	95.6	0
176	23202	95.7	0
176	23202	95.8	0
176	23202	95.9	0
176	23202	96	0
176	23202	96.1	0
176	23202	96.2	0
176	23202	96.3	0
176	23202	96.4	0
176	23202	96.5	0
176	23202	96.6	0
176	23202	96.7	0
176	23202	96.8	0
176	23202	96.9	0
176	23202	97	0
176	23202	97.1	0
176	23202	97.2	0
176	23202	97.3	0
176	23202	97.4	0
176	23202	97.5	0
176	23202	97.6	0
176	23202	97.7	0
176	23202	97.8	0
176	23202	97.9	0
176	23202	98	0
176	23202	98.1	0
176	23202	98.2	0
176	23202	98.3	0
176	23202	98.4	0
176	23202	98.5	0
176	23202	98.6	0
176	23202	98.7	0
176	23202	98.8	0
176	23202	98.9	0
176	23202	99	0
176	23202	99.1	0
176	23202	99.2	0
176	23202	99.3	0
176	23202	99.4	0
176	23202	99.5	0
176	23202	99.6	0
176	23202	99.7	0
176	23202	99.8	0
176	23202	99.9	0
176	23202	100	0
177	23202	100.00012348	0.00012348

