version 2
run static-0-20190119-12:09:12-8548
attr configname static
attr datetime 20190119-12:09:12
attr experiment static
attr inifile omnetpp.ini
attr iterationvars ""
attr iterationvarsf ""
attr measurement ""
attr network DynamicTest
attr processid 8548
attr repetition 0
attr replication #0
attr resultdir results
attr runnumber 0
attr seedset 0
param *.scenarioManager.script "xml(\"<empty/>\")"
param **.ospf.ospfConfig "xmldoc(\"ASConfig.xml\")"
param **.ospf.helloInterval 1s
param **.ospf.retransmissionInterval 5s
param **.ospf.interfaceTransmissionDelay 1s
param **.ospf.routerDeadInterval 4s
param **.ospf.authentication.typename "\"NullType\""
param **.ospf.authenticationKey "\"0x00\""
param **.H*.numApps 5
param **.app[0].typename "\"UdpBasicApp\""
param **.app[0].destPort 1234
param **.app[0].messageLength "32 bytes"
param **.app[0].sendInterval 0.1s
param **.app[0].startTime 100s
param **.app[0].stopTime "this.startTime + 400s"
param **.H2.app[0].destAddresses "\"H1\""
param **.H1.app[0].destAddresses "\"H2\""
param **.app[1].typename "\"UdpEchoApp\""
param **.app[1].localPort 1234
param **.app[2].typename "\"UdpBasicApp\""
param **.app[2].destPort 1234
param **.app[2].messageLength "32 bytes"
param **.app[2].sendInterval 0.11s
param **.app[2].startTime 100s
param **.app[2].stopTime "this.startTime + 400s"
param **.H2.app[2].destAddresses "\"H1\""
param **.H1.app[2].destAddresses "\"H2\""
param **.app[3].typename "\"UdpBasicApp\""
param **.app[3].destPort 1234
param **.app[3].messageLength "32 bytes"
param **.app[3].sendInterval 0.11s
param **.app[3].startTime 100s
param **.app[3].stopTime "this.startTime + 400s"
param **.H2.app[3].destAddresses "\"H1\""
param **.H1.app[3].destAddresses "\"H2\""
param **.app[4].typename "\"UdpBasicApp\""
param **.app[4].destPort 1234
param **.app[4].messageLength "32 bytes"
param **.app[4].sendInterval 0.0001s
param **.app[4].startTime 100s
param **.app[4].stopTime "this.startTime + 400s"
param **.H2.app[4].destAddresses "\"H1\""
param **.H1.app[4].destAddresses "\"H2\""
param **.arp.cacheTimeout 1s
param *.configurator.addStaticRoutes false
param *.configurator.addSubnetRoutes false
param *.configurator.addDefaultRoutes false

vector 0 DynamicTest.R2.eth[0].encap encapPk:vector(packetBytes) ETV
attr interpolationmode none
attr source encapPk
attr title "packets encapsulated, vector(packetBytes)"
vector 1 DynamicTest.R2.eth[0].mac packetReceivedFromUpper:vector(packetBytes) ETV
attr interpolationmode none
attr source packetReceivedFromUpper
attr title "packet bytes from higher layer, vector(packetBytes)"
vector 2 DynamicTest.R2.eth[0].mac txPk:vector(packetBytes) ETV
attr interpolationmode none
attr source packetSentToLower
attr title "packets transmitted, vector(packetBytes)"
vector 3 DynamicTest.H2.eth[0].mac rxPkOk:vector(packetBytes) ETV
attr interpolationmode none
attr source rxPkOk
attr title "packets received OK, vector(packetBytes)"
vector 4 DynamicTest.H2.eth[0].mac passedUpPk:vector(packetBytes) ETV
attr interpolationmode none
attr source packetSentToUpper
attr title "packets passed to higher layer, vector(packetBytes)"
vector 5 DynamicTest.H2.eth[0].encap decapPk:vector(packetBytes) ETV
attr interpolationmode none
attr source decapPk
attr title "packets decapsulated, vector(packetBytes)"
vector 6 DynamicTest.RB.eth[0].encap encapPk:vector(packetBytes) ETV
attr interpolationmode none
attr source encapPk
attr title "packets encapsulated, vector(packetBytes)"
vector 7 DynamicTest.RB.eth[0].mac packetReceivedFromUpper:vector(packetBytes) ETV
attr interpolationmode none
attr source packetReceivedFromUpper
attr title "packet bytes from higher layer, vector(packetBytes)"
vector 8 DynamicTest.RB.eth[0].mac txPk:vector(packetBytes) ETV
attr interpolationmode none
attr source packetSentToLower
attr title "packets transmitted, vector(packetBytes)"
vector 9 DynamicTest.R1.eth[2].mac rxPkOk:vector(packetBytes) ETV
attr interpolationmode none
attr source rxPkOk
attr title "packets received OK, vector(packetBytes)"
vector 10 DynamicTest.R1.eth[2].mac passedUpPk:vector(packetBytes) ETV
attr interpolationmode none
attr source packetSentToUpper
attr title "packets passed to higher layer, vector(packetBytes)"
vector 11 DynamicTest.R1.eth[2].encap decapPk:vector(packetBytes) ETV
attr interpolationmode none
attr source decapPk
attr title "packets decapsulated, vector(packetBytes)"
vector 12 DynamicTest.R1.eth[0].encap encapPk:vector(packetBytes) ETV
attr interpolationmode none
attr source encapPk
attr title "packets encapsulated, vector(packetBytes)"
vector 13 DynamicTest.R1.eth[0].mac packetReceivedFromUpper:vector(packetBytes) ETV
attr interpolationmode none
attr source packetReceivedFromUpper
attr title "packet bytes from higher layer, vector(packetBytes)"
vector 14 DynamicTest.R1.eth[0].mac txPk:vector(packetBytes) ETV
attr interpolationmode none
attr source packetSentToLower
attr title "packets transmitted, vector(packetBytes)"
vector 15 DynamicTest.H1.eth[0].mac rxPkOk:vector(packetBytes) ETV
attr interpolationmode none
attr source rxPkOk
attr title "packets received OK, vector(packetBytes)"
vector 16 DynamicTest.H1.eth[0].mac passedUpPk:vector(packetBytes) ETV
attr interpolationmode none
attr source packetSentToUpper
attr title "packets passed to higher layer, vector(packetBytes)"
vector 17 DynamicTest.H1.eth[0].encap decapPk:vector(packetBytes) ETV
attr interpolationmode none
attr source decapPk
attr title "packets decapsulated, vector(packetBytes)"
vector 18 DynamicTest.R2.eth[1].encap encapPk:vector(packetBytes) ETV
attr interpolationmode none
attr source encapPk
attr title "packets encapsulated, vector(packetBytes)"
vector 19 DynamicTest.R2.eth[1].mac packetReceivedFromUpper:vector(packetBytes) ETV
attr interpolationmode none
attr source packetReceivedFromUpper
attr title "packet bytes from higher layer, vector(packetBytes)"
vector 20 DynamicTest.R2.eth[1].mac txPk:vector(packetBytes) ETV
attr interpolationmode none
attr source packetSentToLower
attr title "packets transmitted, vector(packetBytes)"
vector 21 DynamicTest.RC.eth[1].mac rxPkOk:vector(packetBytes) ETV
attr interpolationmode none
attr source rxPkOk
attr title "packets received OK, vector(packetBytes)"
vector 22 DynamicTest.RC.eth[1].mac passedUpPk:vector(packetBytes) ETV
attr interpolationmode none
attr source packetSentToUpper
attr title "packets passed to higher layer, vector(packetBytes)"
vector 23 DynamicTest.RC.eth[1].encap decapPk:vector(packetBytes) ETV
attr interpolationmode none
attr source decapPk
attr title "packets decapsulated, vector(packetBytes)"
vector 24 DynamicTest.RD.eth[0].encap encapPk:vector(packetBytes) ETV
attr interpolationmode none
attr source encapPk
attr title "packets encapsulated, vector(packetBytes)"
vector 25 DynamicTest.RD.eth[0].mac packetReceivedFromUpper:vector(packetBytes) ETV
attr interpolationmode none
attr source packetReceivedFromUpper
attr title "packet bytes from higher layer, vector(packetBytes)"
vector 26 DynamicTest.RD.eth[0].mac txPk:vector(packetBytes) ETV
attr interpolationmode none
attr source packetSentToLower
attr title "packets transmitted, vector(packetBytes)"
vector 27 DynamicTest.RB.eth[1].mac rxPkOk:vector(packetBytes) ETV
attr interpolationmode none
attr source rxPkOk
attr title "packets received OK, vector(packetBytes)"
vector 28 DynamicTest.RB.eth[1].mac passedUpPk:vector(packetBytes) ETV
attr interpolationmode none
attr source packetSentToUpper
attr title "packets passed to higher layer, vector(packetBytes)"
vector 29 DynamicTest.RB.eth[1].encap decapPk:vector(packetBytes) ETV
attr interpolationmode none
attr source decapPk
attr title "packets decapsulated, vector(packetBytes)"
vector 30 DynamicTest.RA.eth[1].encap encapPk:vector(packetBytes) ETV
attr interpolationmode none
attr source encapPk
attr title "packets encapsulated, vector(packetBytes)"
vector 31 DynamicTest.RA.eth[1].mac packetReceivedFromUpper:vector(packetBytes) ETV
attr interpolationmode none
attr source packetReceivedFromUpper
attr title "packet bytes from higher layer, vector(packetBytes)"
vector 32 DynamicTest.RA.eth[1].mac txPk:vector(packetBytes) ETV
attr interpolationmode none
attr source packetSentToLower
attr title "packets transmitted, vector(packetBytes)"
vector 33 DynamicTest.RC.eth[0].mac rxPkOk:vector(packetBytes) ETV
attr interpolationmode none
attr source rxPkOk
attr title "packets received OK, vector(packetBytes)"
vector 34 DynamicTest.RC.eth[0].mac passedUpPk:vector(packetBytes) ETV
attr interpolationmode none
attr source packetSentToUpper
attr title "packets passed to higher layer, vector(packetBytes)"
vector 35 DynamicTest.RC.eth[0].encap decapPk:vector(packetBytes) ETV
attr interpolationmode none
attr source decapPk
attr title "packets decapsulated, vector(packetBytes)"
vector 36 DynamicTest.RC.eth[1].encap encapPk:vector(packetBytes) ETV
attr interpolationmode none
attr source encapPk
attr title "packets encapsulated, vector(packetBytes)"
vector 37 DynamicTest.RC.eth[1].mac packetReceivedFromUpper:vector(packetBytes) ETV
attr interpolationmode none
attr source packetReceivedFromUpper
attr title "packet bytes from higher layer, vector(packetBytes)"
vector 38 DynamicTest.RC.eth[1].mac txPk:vector(packetBytes) ETV
attr interpolationmode none
attr source packetSentToLower
attr title "packets transmitted, vector(packetBytes)"
vector 39 DynamicTest.R2.eth[1].mac rxPkOk:vector(packetBytes) ETV
attr interpolationmode none
attr source rxPkOk
attr title "packets received OK, vector(packetBytes)"
vector 40 DynamicTest.R2.eth[1].mac passedUpPk:vector(packetBytes) ETV
attr interpolationmode none
attr source packetSentToUpper
attr title "packets passed to higher layer, vector(packetBytes)"
vector 41 DynamicTest.R2.eth[1].encap decapPk:vector(packetBytes) ETV
attr interpolationmode none
attr source decapPk
attr title "packets decapsulated, vector(packetBytes)"
vector 42 DynamicTest.RB.eth[1].encap encapPk:vector(packetBytes) ETV
attr interpolationmode none
attr source encapPk
attr title "packets encapsulated, vector(packetBytes)"
vector 43 DynamicTest.RB.eth[1].mac packetReceivedFromUpper:vector(packetBytes) ETV
attr interpolationmode none
attr source packetReceivedFromUpper
attr title "packet bytes from higher layer, vector(packetBytes)"
vector 44 DynamicTest.RB.eth[1].mac txPk:vector(packetBytes) ETV
attr interpolationmode none
attr source packetSentToLower
attr title "packets transmitted, vector(packetBytes)"
vector 45 DynamicTest.RD.eth[0].mac rxPkOk:vector(packetBytes) ETV
attr interpolationmode none
attr source rxPkOk
attr title "packets received OK, vector(packetBytes)"
vector 46 DynamicTest.RD.eth[0].mac passedUpPk:vector(packetBytes) ETV
attr interpolationmode none
attr source packetSentToUpper
attr title "packets passed to higher layer, vector(packetBytes)"
vector 47 DynamicTest.RD.eth[0].encap decapPk:vector(packetBytes) ETV
attr interpolationmode none
attr source decapPk
attr title "packets decapsulated, vector(packetBytes)"
vector 48 DynamicTest.RK.eth[1].encap encapPk:vector(packetBytes) ETV
attr interpolationmode none
attr source encapPk
attr title "packets encapsulated, vector(packetBytes)"
vector 49 DynamicTest.RK.eth[1].mac packetReceivedFromUpper:vector(packetBytes) ETV
attr interpolationmode none
attr source packetReceivedFromUpper
attr title "packet bytes from higher layer, vector(packetBytes)"
vector 50 DynamicTest.RK.eth[1].mac txPk:vector(packetBytes) ETV
attr interpolationmode none
attr source packetSentToLower
attr title "packets transmitted, vector(packetBytes)"
vector 51 DynamicTest.RL.eth[0].mac rxPkOk:vector(packetBytes) ETV
attr interpolationmode none
attr source rxPkOk
attr title "packets received OK, vector(packetBytes)"
vector 52 DynamicTest.RL.eth[0].mac passedUpPk:vector(packetBytes) ETV
attr interpolationmode none
attr source packetSentToUpper
attr title "packets passed to higher layer, vector(packetBytes)"
vector 53 DynamicTest.RL.eth[0].encap decapPk:vector(packetBytes) ETV
attr interpolationmode none
attr source decapPk
attr title "packets decapsulated, vector(packetBytes)"
vector 54 DynamicTest.RK.eth[0].encap encapPk:vector(packetBytes) ETV
attr interpolationmode none
attr source encapPk
attr title "packets encapsulated, vector(packetBytes)"
vector 55 DynamicTest.RK.eth[0].mac packetReceivedFromUpper:vector(packetBytes) ETV
attr interpolationmode none
attr source packetReceivedFromUpper
attr title "packet bytes from higher layer, vector(packetBytes)"
vector 56 DynamicTest.RK.eth[0].mac txPk:vector(packetBytes) ETV
attr interpolationmode none
attr source packetSentToLower
attr title "packets transmitted, vector(packetBytes)"
vector 57 DynamicTest.R1.eth[3].mac rxPkOk:vector(packetBytes) ETV
attr interpolationmode none
attr source rxPkOk
attr title "packets received OK, vector(packetBytes)"
vector 58 DynamicTest.R1.eth[3].mac passedUpPk:vector(packetBytes) ETV
attr interpolationmode none
attr source packetSentToUpper
attr title "packets passed to higher layer, vector(packetBytes)"
vector 59 DynamicTest.R1.eth[3].encap decapPk:vector(packetBytes) ETV
attr interpolationmode none
attr source decapPk
attr title "packets decapsulated, vector(packetBytes)"
vector 60 DynamicTest.RL.eth[0].encap encapPk:vector(packetBytes) ETV
attr interpolationmode none
attr source encapPk
attr title "packets encapsulated, vector(packetBytes)"
vector 61 DynamicTest.RL.eth[0].mac packetReceivedFromUpper:vector(packetBytes) ETV
attr interpolationmode none
attr source packetReceivedFromUpper
attr title "packet bytes from higher layer, vector(packetBytes)"
vector 62 DynamicTest.RL.eth[0].mac txPk:vector(packetBytes) ETV
attr interpolationmode none
attr source packetSentToLower
attr title "packets transmitted, vector(packetBytes)"
vector 63 DynamicTest.RK.eth[1].mac rxPkOk:vector(packetBytes) ETV
attr interpolationmode none
attr source rxPkOk
attr title "packets received OK, vector(packetBytes)"
vector 64 DynamicTest.RK.eth[1].mac passedUpPk:vector(packetBytes) ETV
attr interpolationmode none
attr source packetSentToUpper
attr title "packets passed to higher layer, vector(packetBytes)"
vector 65 DynamicTest.RK.eth[1].encap decapPk:vector(packetBytes) ETV
attr interpolationmode none
attr source decapPk
attr title "packets decapsulated, vector(packetBytes)"
vector 66 DynamicTest.RD.eth[1].encap encapPk:vector(packetBytes) ETV
attr interpolationmode none
attr source encapPk
attr title "packets encapsulated, vector(packetBytes)"
vector 67 DynamicTest.RD.eth[1].mac packetReceivedFromUpper:vector(packetBytes) ETV
attr interpolationmode none
attr source packetReceivedFromUpper
attr title "packet bytes from higher layer, vector(packetBytes)"
vector 68 DynamicTest.RD.eth[1].mac txPk:vector(packetBytes) ETV
attr interpolationmode none
attr source packetSentToLower
attr title "packets transmitted, vector(packetBytes)"
vector 69 DynamicTest.R2.eth[2].mac rxPkOk:vector(packetBytes) ETV
attr interpolationmode none
attr source rxPkOk
attr title "packets received OK, vector(packetBytes)"
vector 70 DynamicTest.R2.eth[2].mac passedUpPk:vector(packetBytes) ETV
attr interpolationmode none
attr source packetSentToUpper
attr title "packets passed to higher layer, vector(packetBytes)"
vector 71 DynamicTest.R2.eth[2].encap decapPk:vector(packetBytes) ETV
attr interpolationmode none
attr source decapPk
attr title "packets decapsulated, vector(packetBytes)"
vector 72 DynamicTest.RA.eth[0].encap encapPk:vector(packetBytes) ETV
attr interpolationmode none
attr source encapPk
attr title "packets encapsulated, vector(packetBytes)"
vector 73 DynamicTest.RA.eth[0].mac packetReceivedFromUpper:vector(packetBytes) ETV
attr interpolationmode none
attr source packetReceivedFromUpper
attr title "packet bytes from higher layer, vector(packetBytes)"
vector 74 DynamicTest.RA.eth[0].mac txPk:vector(packetBytes) ETV
attr interpolationmode none
attr source packetSentToLower
attr title "packets transmitted, vector(packetBytes)"
vector 75 DynamicTest.R1.eth[1].mac rxPkOk:vector(packetBytes) ETV
attr interpolationmode none
attr source rxPkOk
attr title "packets received OK, vector(packetBytes)"
vector 76 DynamicTest.R1.eth[1].mac passedUpPk:vector(packetBytes) ETV
attr interpolationmode none
attr source packetSentToUpper
attr title "packets passed to higher layer, vector(packetBytes)"
vector 77 DynamicTest.R1.eth[1].encap decapPk:vector(packetBytes) ETV
attr interpolationmode none
attr source decapPk
attr title "packets decapsulated, vector(packetBytes)"
vector 78 DynamicTest.R1.eth[2].encap encapPk:vector(packetBytes) ETV
attr interpolationmode none
attr source encapPk
attr title "packets encapsulated, vector(packetBytes)"
vector 79 DynamicTest.R1.eth[2].mac packetReceivedFromUpper:vector(packetBytes) ETV
attr interpolationmode none
attr source packetReceivedFromUpper
attr title "packet bytes from higher layer, vector(packetBytes)"
vector 80 DynamicTest.R1.eth[2].mac txPk:vector(packetBytes) ETV
attr interpolationmode none
attr source packetSentToLower
attr title "packets transmitted, vector(packetBytes)"
vector 81 DynamicTest.RB.eth[0].mac rxPkOk:vector(packetBytes) ETV
attr interpolationmode none
attr source rxPkOk
attr title "packets received OK, vector(packetBytes)"
vector 82 DynamicTest.RB.eth[0].mac passedUpPk:vector(packetBytes) ETV
attr interpolationmode none
attr source packetSentToUpper
attr title "packets passed to higher layer, vector(packetBytes)"
vector 83 DynamicTest.RB.eth[0].encap decapPk:vector(packetBytes) ETV
attr interpolationmode none
attr source decapPk
attr title "packets decapsulated, vector(packetBytes)"
vector 84 DynamicTest.R1.eth[1].encap encapPk:vector(packetBytes) ETV
attr interpolationmode none
attr source encapPk
attr title "packets encapsulated, vector(packetBytes)"
vector 85 DynamicTest.R1.eth[1].mac packetReceivedFromUpper:vector(packetBytes) ETV
attr interpolationmode none
attr source packetReceivedFromUpper
attr title "packet bytes from higher layer, vector(packetBytes)"
vector 86 DynamicTest.R1.eth[1].mac txPk:vector(packetBytes) ETV
attr interpolationmode none
attr source packetSentToLower
attr title "packets transmitted, vector(packetBytes)"
vector 87 DynamicTest.RA.eth[0].mac rxPkOk:vector(packetBytes) ETV
attr interpolationmode none
attr source rxPkOk
attr title "packets received OK, vector(packetBytes)"
vector 88 DynamicTest.RA.eth[0].mac passedUpPk:vector(packetBytes) ETV
attr interpolationmode none
attr source packetSentToUpper
attr title "packets passed to higher layer, vector(packetBytes)"
vector 89 DynamicTest.RA.eth[0].encap decapPk:vector(packetBytes) ETV
attr interpolationmode none
attr source decapPk
attr title "packets decapsulated, vector(packetBytes)"
vector 90 DynamicTest.R2.eth[2].encap encapPk:vector(packetBytes) ETV
attr interpolationmode none
attr source encapPk
attr title "packets encapsulated, vector(packetBytes)"
vector 91 DynamicTest.R2.eth[2].mac packetReceivedFromUpper:vector(packetBytes) ETV
attr interpolationmode none
attr source packetReceivedFromUpper
attr title "packet bytes from higher layer, vector(packetBytes)"
vector 92 DynamicTest.R2.eth[2].mac txPk:vector(packetBytes) ETV
attr interpolationmode none
attr source packetSentToLower
attr title "packets transmitted, vector(packetBytes)"
vector 93 DynamicTest.RD.eth[1].mac rxPkOk:vector(packetBytes) ETV
attr interpolationmode none
attr source rxPkOk
attr title "packets received OK, vector(packetBytes)"
vector 94 DynamicTest.RD.eth[1].mac passedUpPk:vector(packetBytes) ETV
attr interpolationmode none
attr source packetSentToUpper
attr title "packets passed to higher layer, vector(packetBytes)"
vector 95 DynamicTest.RD.eth[1].encap decapPk:vector(packetBytes) ETV
attr interpolationmode none
attr source decapPk
attr title "packets decapsulated, vector(packetBytes)"
vector 96 DynamicTest.RL.eth[1].encap encapPk:vector(packetBytes) ETV
attr interpolationmode none
attr source encapPk
attr title "packets encapsulated, vector(packetBytes)"
vector 97 DynamicTest.RL.eth[1].mac packetReceivedFromUpper:vector(packetBytes) ETV
attr interpolationmode none
attr source packetReceivedFromUpper
attr title "packet bytes from higher layer, vector(packetBytes)"
vector 98 DynamicTest.RL.eth[1].mac txPk:vector(packetBytes) ETV
attr interpolationmode none
attr source packetSentToLower
attr title "packets transmitted, vector(packetBytes)"
vector 99 DynamicTest.R2.eth[3].mac rxPkOk:vector(packetBytes) ETV
attr interpolationmode none
attr source rxPkOk
attr title "packets received OK, vector(packetBytes)"
vector 100 DynamicTest.R2.eth[3].mac passedUpPk:vector(packetBytes) ETV
attr interpolationmode none
attr source packetSentToUpper
attr title "packets passed to higher layer, vector(packetBytes)"
vector 101 DynamicTest.R2.eth[3].encap decapPk:vector(packetBytes) ETV
attr interpolationmode none
attr source decapPk
attr title "packets decapsulated, vector(packetBytes)"
vector 102 DynamicTest.RC.eth[0].encap encapPk:vector(packetBytes) ETV
attr interpolationmode none
attr source encapPk
attr title "packets encapsulated, vector(packetBytes)"
vector 103 DynamicTest.RC.eth[0].mac packetReceivedFromUpper:vector(packetBytes) ETV
attr interpolationmode none
attr source packetReceivedFromUpper
attr title "packet bytes from higher layer, vector(packetBytes)"
vector 104 DynamicTest.RC.eth[0].mac txPk:vector(packetBytes) ETV
attr interpolationmode none
attr source packetSentToLower
attr title "packets transmitted, vector(packetBytes)"
vector 105 DynamicTest.RA.eth[1].mac rxPkOk:vector(packetBytes) ETV
attr interpolationmode none
attr source rxPkOk
attr title "packets received OK, vector(packetBytes)"
vector 106 DynamicTest.RA.eth[1].mac passedUpPk:vector(packetBytes) ETV
attr interpolationmode none
attr source packetSentToUpper
attr title "packets passed to higher layer, vector(packetBytes)"
vector 107 DynamicTest.RA.eth[1].encap decapPk:vector(packetBytes) ETV
attr interpolationmode none
attr source decapPk
attr title "packets decapsulated, vector(packetBytes)"
vector 108 DynamicTest.R2.ipv4.arp arpRequestSent:vector(packetBytes) ETV
attr source arpRequestSent
attr title "ARP request sent, vector(packetBytes)"
vector 109 DynamicTest.RC.ipv4.arp arpReplySent:vector(packetBytes) ETV
attr source arpReplySent
attr title "ARP replies sent, vector(packetBytes)"
vector 110 DynamicTest.RB.ipv4.arp arpRequestSent:vector(packetBytes) ETV
attr source arpRequestSent
attr title "ARP request sent, vector(packetBytes)"
vector 111 DynamicTest.RD.ipv4.arp arpRequestSent:vector(packetBytes) ETV
attr source arpRequestSent
attr title "ARP request sent, vector(packetBytes)"
vector 112 DynamicTest.RD.ipv4.arp arpReplySent:vector(packetBytes) ETV
attr source arpReplySent
attr title "ARP replies sent, vector(packetBytes)"
vector 113 DynamicTest.RB.ipv4.arp arpReplySent:vector(packetBytes) ETV
attr source arpReplySent
attr title "ARP replies sent, vector(packetBytes)"
vector 114 DynamicTest.RK.ipv4.arp arpRequestSent:vector(packetBytes) ETV
attr source arpRequestSent
attr title "ARP request sent, vector(packetBytes)"
vector 115 DynamicTest.RL.ipv4.arp arpRequestSent:vector(packetBytes) ETV
attr source arpRequestSent
attr title "ARP request sent, vector(packetBytes)"
vector 116 DynamicTest.RL.ipv4.arp arpReplySent:vector(packetBytes) ETV
attr source arpReplySent
attr title "ARP replies sent, vector(packetBytes)"
vector 117 DynamicTest.RK.ipv4.arp arpReplySent:vector(packetBytes) ETV
attr source arpReplySent
attr title "ARP replies sent, vector(packetBytes)"
vector 118 DynamicTest.R1.ipv4.arp arpRequestSent:vector(packetBytes) ETV
attr source arpRequestSent
attr title "ARP request sent, vector(packetBytes)"
vector 119 DynamicTest.R1.ipv4.arp arpReplySent:vector(packetBytes) ETV
attr source arpReplySent
attr title "ARP replies sent, vector(packetBytes)"
vector 120 DynamicTest.RA.ipv4.arp arpReplySent:vector(packetBytes) ETV
attr source arpReplySent
attr title "ARP replies sent, vector(packetBytes)"
vector 121 DynamicTest.RC.ipv4.arp arpRequestSent:vector(packetBytes) ETV
attr source arpRequestSent
attr title "ARP request sent, vector(packetBytes)"
vector 122 DynamicTest.R2.ipv4.arp arpReplySent:vector(packetBytes) ETV
attr source arpReplySent
attr title "ARP replies sent, vector(packetBytes)"
vector 123 DynamicTest.H1.app[0] packetSent:vector(packetBytes) ETV
attr interpolationmode none
attr source packetSent
attr title "packets sent, vector(packetBytes)"
vector 124 DynamicTest.H1.app[2] packetSent:vector(packetBytes) ETV
attr interpolationmode none
attr source packetSent
attr title "packets sent, vector(packetBytes)"
vector 125 DynamicTest.H1.app[3] packetSent:vector(packetBytes) ETV
attr interpolationmode none
attr source packetSent
attr title "packets sent, vector(packetBytes)"
vector 126 DynamicTest.H1.app[4] packetSent:vector(packetBytes) ETV
attr interpolationmode none
attr source packetSent
attr title "packets sent, vector(packetBytes)"
vector 127 DynamicTest.H2.app[0] packetSent:vector(packetBytes) ETV
attr interpolationmode none
attr source packetSent
attr title "packets sent, vector(packetBytes)"
vector 128 DynamicTest.H2.app[2] packetSent:vector(packetBytes) ETV
attr interpolationmode none
attr source packetSent
attr title "packets sent, vector(packetBytes)"
vector 129 DynamicTest.H2.app[3] packetSent:vector(packetBytes) ETV
attr interpolationmode none
attr source packetSent
attr title "packets sent, vector(packetBytes)"
vector 130 DynamicTest.H2.app[4] packetSent:vector(packetBytes) ETV
attr interpolationmode none
attr source packetSent
attr title "packets sent, vector(packetBytes)"
vector 131 DynamicTest.H1.udp packetSent:vector(packetBytes) ETV
attr interpolationmode none
attr source packetSent
attr title "packets sent, vector(packetBytes)"
vector 132 DynamicTest.H2.udp packetSent:vector(packetBytes) ETV
attr interpolationmode none
attr source packetSent
attr title "packets sent, vector(packetBytes)"
vector 133 DynamicTest.H1.ipv4.arp arpRequestSent:vector(packetBytes) ETV
attr source arpRequestSent
attr title "ARP request sent, vector(packetBytes)"
vector 134 DynamicTest.H2.ipv4.arp arpRequestSent:vector(packetBytes) ETV
attr source arpRequestSent
attr title "ARP request sent, vector(packetBytes)"
vector 135 DynamicTest.H1.eth[0].encap encapPk:vector(packetBytes) ETV
attr interpolationmode none
attr source encapPk
attr title "packets encapsulated, vector(packetBytes)"
vector 136 DynamicTest.H2.eth[0].encap encapPk:vector(packetBytes) ETV
attr interpolationmode none
attr source encapPk
attr title "packets encapsulated, vector(packetBytes)"
vector 137 DynamicTest.H1.eth[0].mac packetReceivedFromUpper:vector(packetBytes) ETV
attr interpolationmode none
attr source packetReceivedFromUpper
attr title "packet bytes from higher layer, vector(packetBytes)"
vector 138 DynamicTest.H2.eth[0].mac packetReceivedFromUpper:vector(packetBytes) ETV
attr interpolationmode none
attr source packetReceivedFromUpper
attr title "packet bytes from higher layer, vector(packetBytes)"
vector 139 DynamicTest.H1.eth[0].mac txPk:vector(packetBytes) ETV
attr interpolationmode none
attr source packetSentToLower
attr title "packets transmitted, vector(packetBytes)"
vector 140 DynamicTest.H2.eth[0].mac txPk:vector(packetBytes) ETV
attr interpolationmode none
attr source packetSentToLower
attr title "packets transmitted, vector(packetBytes)"
vector 141 DynamicTest.R1.eth[0].mac rxPkOk:vector(packetBytes) ETV
attr interpolationmode none
attr source rxPkOk
attr title "packets received OK, vector(packetBytes)"
vector 142 DynamicTest.R1.eth[0].mac passedUpPk:vector(packetBytes) ETV
attr interpolationmode none
attr source packetSentToUpper
attr title "packets passed to higher layer, vector(packetBytes)"
vector 143 DynamicTest.R2.eth[0].mac rxPkOk:vector(packetBytes) ETV
attr interpolationmode none
attr source rxPkOk
attr title "packets received OK, vector(packetBytes)"
vector 144 DynamicTest.R2.eth[0].mac passedUpPk:vector(packetBytes) ETV
attr interpolationmode none
attr source packetSentToUpper
attr title "packets passed to higher layer, vector(packetBytes)"
vector 145 DynamicTest.R1.eth[0].encap decapPk:vector(packetBytes) ETV
attr interpolationmode none
attr source decapPk
attr title "packets decapsulated, vector(packetBytes)"
vector 146 DynamicTest.R2.eth[0].encap decapPk:vector(packetBytes) ETV
attr interpolationmode none
attr source decapPk
attr title "packets decapsulated, vector(packetBytes)"
vector 147 DynamicTest.RA.ipv4.arp arpRequestSent:vector(packetBytes) ETV
attr source arpRequestSent
attr title "ARP request sent, vector(packetBytes)"
vector 148 DynamicTest.H2.udp packetReceived:vector(packetBytes) ETV
attr interpolationmode none
attr source packetReceived
attr title "packets received, vector(packetBytes)"
vector 149 DynamicTest.H2.udp passedUpPk:vector(count) ETV
attr interpolationmode none
attr source packetSentToUpper
attr title "packets passed up, vector(count)"
vector 150 DynamicTest.H1.udp packetReceived:vector(packetBytes) ETV
attr interpolationmode none
attr source packetReceived
attr title "packets received, vector(packetBytes)"
vector 151 DynamicTest.H1.udp passedUpPk:vector(count) ETV
attr interpolationmode none
attr source packetSentToUpper
attr title "packets passed up, vector(count)"
vector 152 DynamicTest.H2.app[1] echoedPk:vector(packetBytes) ETV
attr interpolationmode none
attr source packetSent
attr title "packets echoed, vector(packetBytes)"
vector 153 DynamicTest.H1.app[1] echoedPk:vector(packetBytes) ETV
attr interpolationmode none
attr source packetSent
attr title "packets echoed, vector(packetBytes)"
vector 154 DynamicTest.H2.app[0] packetReceived:vector(packetBytes) ETV
attr interpolationmode none
attr source packetReceived
attr title "packets received, vector(packetBytes)"
vector 155 DynamicTest.H2.app[0] throughput:vector ETV
attr source throughput(packetReceived)
attr title "throughput, vector"
attr unit bps
vector 156 DynamicTest.H2.app[0] rcvdPkLifetime:vector ETV
attr interpolationmode none
attr source dataAge(packetReceived)
attr title "received packet lifetime, vector"
attr unit s
vector 157 DynamicTest.H1.app[0] packetReceived:vector(packetBytes) ETV
attr interpolationmode none
attr source packetReceived
attr title "packets received, vector(packetBytes)"
vector 158 DynamicTest.H1.app[0] throughput:vector ETV
attr source throughput(packetReceived)
attr title "throughput, vector"
attr unit bps
vector 159 DynamicTest.H1.app[0] rcvdPkLifetime:vector ETV
attr interpolationmode none
attr source dataAge(packetReceived)
attr title "received packet lifetime, vector"
attr unit s
vector 160 DynamicTest.H1.app[2] packetReceived:vector(packetBytes) ETV
attr interpolationmode none
attr source packetReceived
attr title "packets received, vector(packetBytes)"
vector 161 DynamicTest.H1.app[2] throughput:vector ETV
attr source throughput(packetReceived)
attr title "throughput, vector"
attr unit bps
vector 162 DynamicTest.H1.app[2] rcvdPkLifetime:vector ETV
attr interpolationmode none
attr source dataAge(packetReceived)
attr title "received packet lifetime, vector"
attr unit s
vector 163 DynamicTest.H2.app[4] packetReceived:vector(packetBytes) ETV
attr interpolationmode none
attr source packetReceived
attr title "packets received, vector(packetBytes)"
vector 164 DynamicTest.H2.app[4] throughput:vector ETV
attr source throughput(packetReceived)
attr title "throughput, vector"
attr unit bps
vector 165 DynamicTest.H2.app[4] rcvdPkLifetime:vector ETV
attr interpolationmode none
attr source dataAge(packetReceived)
attr title "received packet lifetime, vector"
attr unit s
vector 166 DynamicTest.H1.app[3] packetReceived:vector(packetBytes) ETV
attr interpolationmode none
attr source packetReceived
attr title "packets received, vector(packetBytes)"
vector 167 DynamicTest.H1.app[3] throughput:vector ETV
attr source throughput(packetReceived)
attr title "throughput, vector"
attr unit bps
vector 168 DynamicTest.H1.app[3] rcvdPkLifetime:vector ETV
attr interpolationmode none
attr source dataAge(packetReceived)
attr title "received packet lifetime, vector"
attr unit s
vector 169 DynamicTest.H2.app[2] packetReceived:vector(packetBytes) ETV
attr interpolationmode none
attr source packetReceived
attr title "packets received, vector(packetBytes)"
vector 170 DynamicTest.H2.app[2] throughput:vector ETV
attr source throughput(packetReceived)
attr title "throughput, vector"
attr unit bps
vector 171 DynamicTest.H2.app[2] rcvdPkLifetime:vector ETV
attr interpolationmode none
attr source dataAge(packetReceived)
attr title "received packet lifetime, vector"
attr unit s
vector 172 DynamicTest.H1.app[4] packetReceived:vector(packetBytes) ETV
attr interpolationmode none
attr source packetReceived
attr title "packets received, vector(packetBytes)"
vector 173 DynamicTest.H1.app[4] throughput:vector ETV
attr source throughput(packetReceived)
attr title "throughput, vector"
attr unit bps
vector 174 DynamicTest.H1.app[4] rcvdPkLifetime:vector ETV
attr interpolationmode none
attr source dataAge(packetReceived)
attr title "received packet lifetime, vector"
attr unit s
vector 175 DynamicTest.H2.app[3] packetReceived:vector(packetBytes) ETV
attr interpolationmode none
attr source packetReceived
attr title "packets received, vector(packetBytes)"
vector 176 DynamicTest.H2.app[3] throughput:vector ETV
attr source throughput(packetReceived)
attr title "throughput, vector"
attr unit bps
vector 177 DynamicTest.H2.app[3] rcvdPkLifetime:vector ETV
attr interpolationmode none
attr source dataAge(packetReceived)
attr title "received packet lifetime, vector"
attr unit s
0	7	0.08782770417	64
0	1246	1.08782770417	64
0	1450	2.08782770417	64
0	1654	3.08782770417	64
0	1860	4.08782770417	64
0	2078	5.08782770417	64
0	3043	6.08782770417	64
0	3247	7.08782770417	64
0	3451	8.08782770417	64
0	3655	9.08782770417	64
0	3859	10.08782770417	64
0	4219	11.08782770417	64
0	4423	12.08782770417	64
0	4627	13.08782770417	64
0	4831	14.08782770417	64
0	5035	15.08782770417	64
0	5239	16.08782770417	64
0	5443	17.08782770417	64
0	5647	18.08782770417	64
0	5851	19.08782770417	64
0	6055	20.08782770417	64
0	6259	21.08782770417	64
0	6463	22.08782770417	64
0	6667	23.08782770417	64
0	6871	24.08782770417	64
0	7075	25.08782770417	64
0	7279	26.08782770417	64
0	7483	27.08782770417	64
0	7687	28.08782770417	64
0	7891	29.08782770417	64
0	8095	30.08782770417	64
0	8299	31.08782770417	64
0	8503	32.08782770417	64
0	8707	33.08782770417	64
0	8911	34.08782770417	64
0	9115	35.08782770417	64
0	9319	36.08782770417	64
0	9523	37.08782770417	64
0	9727	38.08782770417	64
0	9931	39.08782770417	64
0	10135	40.08782770417	64
0	10339	41.08782770417	64
0	10543	42.08782770417	64
0	10747	43.08782770417	64
0	10951	44.08782770417	64
0	11155	45.08782770417	64
0	11359	46.08782770417	64
0	11563	47.08782770417	64
0	11767	48.08782770417	64
0	11971	49.08782770417	64
0	12175	50.08782770417	64
0	12379	51.08782770417	64
0	12583	52.08782770417	64
0	12787	53.08782770417	64
0	12991	54.08782770417	64
0	13195	55.08782770417	64
0	13399	56.08782770417	64
0	13603	57.08782770417	64
0	13807	58.08782770417	64
0	14011	59.08782770417	64
0	14215	60.08782770417	64
0	14419	61.08782770417	64
0	14623	62.08782770417	64
0	14827	63.08782770417	64
0	15031	64.08782770417	64
0	15235	65.08782770417	64
0	15439	66.08782770417	64
0	15643	67.08782770417	64
0	15847	68.08782770417	64
0	16051	69.08782770417	64
0	16255	70.08782770417	64
0	16459	71.08782770417	64
0	16663	72.08782770417	64
0	16867	73.08782770417	64
0	17071	74.08782770417	64
0	17275	75.08782770417	64
0	17479	76.08782770417	64
0	17683	77.08782770417	64
0	17887	78.08782770417	64
0	18091	79.08782770417	64
0	18295	80.08782770417	64
0	18499	81.08782770417	64
0	18703	82.08782770417	64
0	18907	83.08782770417	64
0	19111	84.08782770417	64
0	19315	85.08782770417	64
0	19519	86.08782770417	64
0	19723	87.08782770417	64
0	19927	88.08782770417	64
0	20131	89.08782770417	64
0	20335	90.08782770417	64
0	20539	91.08782770417	64
0	20743	92.08782770417	64
0	20947	93.08782770417	64
0	21151	94.08782770417	64
0	21355	95.08782770417	64
0	21559	96.08782770417	64
0	21763	97.08782770417	64
0	21967	98.08782770417	64
0	22171	99.08782770417	64
0	22418	100.00000586	28
0	22658	100.00005808	60
0	22748	100.00007264	60
0	22812	100.00008048	60
0	22865	100.00008832	60
0	22929	100.00009616	60
0	23032	100.00010754	60
0	23117	100.00011754	60
0	23167	100.00012538	60
0	23202	100.00013322	60
0	23273	100.00016596	60
0	23357	100.00022792	60
0	23436	100.00026282	60
0	23515	100.00032792	60
0	23594	100.00036282	60
0	23673	100.00042792	60
0	23752	100.00046282	60
0	23831	100.00052792	60
0	23910	100.00056282	60
0	23989	100.00062792	60
0	24068	100.00066282	60
0	24147	100.00072792	60
0	24226	100.00076282	60
0	24305	100.00082792	60
0	24384	100.00086282	60
0	24463	100.00092792	60
0	24542	100.00096282	60
0	24621	100.00102792	60
0	24700	100.00106282	60
0	24779	100.00112792	60
0	24858	100.00116282	60
0	24937	100.00122792	60
0	25016	100.00126282	60
0	25095	100.00132792	60
0	25174	100.00136282	60
0	25253	100.00142792	60
0	25332	100.00146282	60
0	25411	100.00152792	60
0	25490	100.00156282	60
0	25569	100.00162792	60
0	25648	100.00166282	60
0	25727	100.00172792	60
0	25806	100.00176282	60
0	25885	100.00182792	60
0	25964	100.00186282	60
0	26043	100.00192792	60
0	26122	100.00196282	60
0	26201	100.00202792	60
0	26280	100.00206282	60
0	26359	100.00212792	60
0	26438	100.00216282	60
0	26517	100.00222792	60
0	26596	100.00226282	60
0	26675	100.00232792	60
0	26754	100.00236282	60
0	26833	100.00242792	60
0	26912	100.00246282	60
0	26991	100.00252792	60
0	27070	100.00256282	60
0	27149	100.00262792	60
0	27228	100.00266282	60
0	27307	100.00272792	60
0	27386	100.00276282	60
0	27465	100.00282792	60
0	27544	100.00286282	60
0	27623	100.00292792	60
0	27702	100.00296282	60
0	27781	100.00302792	60
0	27860	100.00306282	60
0	27939	100.00312792	60
0	28018	100.00316282	60
0	28097	100.00322792	60
0	28176	100.00326282	60
0	28255	100.00332792	60
0	28334	100.00336282	60
0	28413	100.00342792	60
0	28492	100.00346282	60
0	28571	100.00352792	60
0	28650	100.00356282	60
0	28729	100.00362792	60
0	28808	100.00366282	60
0	28887	100.00372792	60
0	28966	100.00376282	60
0	29045	100.00382792	60
0	29124	100.00386282	60
0	29203	100.00392792	60
0	29282	100.00396282	60
0	29361	100.00402792	60
0	29440	100.00406282	60
0	29519	100.00412792	60
0	29598	100.00416282	60
0	29677	100.00422792	60
0	29756	100.00426282	60
0	29835	100.00432792	60
0	29914	100.00436282	60
0	29993	100.00442792	60
0	30072	100.00446282	60
0	30151	100.00452792	60
0	30230	100.00456282	60
0	30309	100.00462792	60
0	30388	100.00466282	60
0	30467	100.00472792	60
0	30546	100.00476282	60
0	30625	100.00482792	60
0	30704	100.00486282	60
0	30783	100.00492792	60
0	30862	100.00496282	60
0	30941	100.00502792	60
0	31020	100.00506282	60
0	31099	100.00512792	60
0	31178	100.00516282	60
0	31257	100.00522792	60
0	31336	100.00526282	60
0	31415	100.00532792	60
0	31494	100.00536282	60
0	31573	100.00542792	60
0	31652	100.00546282	60
0	31731	100.00552792	60
0	31810	100.00556282	60
0	31889	100.00562792	60
0	31968	100.00566282	60
0	32047	100.00572792	60
0	32126	100.00576282	60
0	32205	100.00582792	60
0	32284	100.00586282	60
0	32363	100.00592792	60
0	32442	100.00596282	60
0	32521	100.00602792	60
0	32600	100.00606282	60
0	32679	100.00612792	60
0	32758	100.00616282	60
0	32837	100.00622792	60
0	32916	100.00626282	60
0	32995	100.00632792	60
0	33074	100.00636282	60
1	8	0.08782770417	82
1	1247	1.08782770417	82
1	1451	2.08782770417	82
1	1655	3.08782770417	82
1	1861	4.08782770417	82
1	2079	5.08782770417	82
1	3044	6.08782770417	82
1	3248	7.08782770417	82
1	3452	8.08782770417	82
1	3656	9.08782770417	82
1	3860	10.08782770417	82
1	4220	11.08782770417	82
1	4424	12.08782770417	82
1	4628	13.08782770417	82
1	4832	14.08782770417	82
1	5036	15.08782770417	82
1	5240	16.08782770417	82
1	5444	17.08782770417	82
1	5648	18.08782770417	82
1	5852	19.08782770417	82
1	6056	20.08782770417	82
1	6260	21.08782770417	82
1	6464	22.08782770417	82
1	6668	23.08782770417	82
1	6872	24.08782770417	82
1	7076	25.08782770417	82
1	7280	26.08782770417	82
1	7484	27.08782770417	82
1	7688	28.08782770417	82
1	7892	29.08782770417	82
1	8096	30.08782770417	82
1	8300	31.08782770417	82
1	8504	32.08782770417	82
1	8708	33.08782770417	82
1	8912	34.08782770417	82
1	9116	35.08782770417	82
1	9320	36.08782770417	82
1	9524	37.08782770417	82
1	9728	38.08782770417	82
1	9932	39.08782770417	82
1	10136	40.08782770417	82
1	10340	41.08782770417	82
1	10544	42.08782770417	82
1	10748	43.08782770417	82
1	10952	44.08782770417	82
1	11156	45.08782770417	82
1	11360	46.08782770417	82
1	11564	47.08782770417	82
1	11768	48.08782770417	82
1	11972	49.08782770417	82
1	12176	50.08782770417	82
1	12380	51.08782770417	82
1	12584	52.08782770417	82
1	12788	53.08782770417	82
1	12992	54.08782770417	82
1	13196	55.08782770417	82
1	13400	56.08782770417	82
1	13604	57.08782770417	82
1	13808	58.08782770417	82
1	14012	59.08782770417	82
1	14216	60.08782770417	82
1	14420	61.08782770417	82
1	14624	62.08782770417	82
1	14828	63.08782770417	82
1	15032	64.08782770417	82
1	15236	65.08782770417	82
1	15440	66.08782770417	82
1	15644	67.08782770417	82
1	15848	68.08782770417	82
1	16052	69.08782770417	82
1	16256	70.08782770417	82
1	16460	71.08782770417	82
1	16664	72.08782770417	82
1	16868	73.08782770417	82
1	17072	74.08782770417	82
1	17276	75.08782770417	82
1	17480	76.08782770417	82
1	17684	77.08782770417	82
1	17888	78.08782770417	82
1	18092	79.08782770417	82
1	18296	80.08782770417	82
1	18500	81.08782770417	82
1	18704	82.08782770417	82
1	18908	83.08782770417	82
1	19112	84.08782770417	82
1	19316	85.08782770417	82
1	19520	86.08782770417	82
1	19724	87.08782770417	82
1	19928	88.08782770417	82
1	20132	89.08782770417	82
1	20336	90.08782770417	82
1	20540	91.08782770417	82
1	20744	92.08782770417	82
1	20948	93.08782770417	82
1	21152	94.08782770417	82
1	21356	95.08782770417	82
1	21560	96.08782770417	82
1	21764	97.08782770417	82
1	21968	98.08782770417	82
1	22172	99.08782770417	82
1	22420	100.00000586	64
1	22660	100.00005808	78
1	22750	100.00007264	78
1	22813	100.00008048	78
1	22866	100.00008832	78
1	22930	100.00009616	78
1	23034	100.00010754	78
1	23118	100.00011754	78
1	23168	100.00012538	78
1	23203	100.00013322	78
1	23274	100.00016596	78
1	23359	100.00022792	78
1	23438	100.00026282	78
1	23517	100.00032792	78
1	23596	100.00036282	78
1	23675	100.00042792	78
1	23754	100.00046282	78
1	23833	100.00052792	78
1	23912	100.00056282	78
1	23991	100.00062792	78
1	24070	100.00066282	78
1	24149	100.00072792	78
1	24228	100.00076282	78
1	24307	100.00082792	78
1	24386	100.00086282	78
1	24465	100.00092792	78
1	24544	100.00096282	78
1	24623	100.00102792	78
1	24702	100.00106282	78
1	24781	100.00112792	78
1	24860	100.00116282	78
1	24939	100.00122792	78
1	25018	100.00126282	78
1	25097	100.00132792	78
1	25176	100.00136282	78
1	25255	100.00142792	78
1	25334	100.00146282	78
1	25413	100.00152792	78
1	25492	100.00156282	78
1	25571	100.00162792	78
1	25650	100.00166282	78
1	25729	100.00172792	78
1	25808	100.00176282	78
1	25887	100.00182792	78
1	25966	100.00186282	78
1	26045	100.00192792	78
1	26124	100.00196282	78
1	26203	100.00202792	78
1	26282	100.00206282	78
1	26361	100.00212792	78
1	26440	100.00216282	78
1	26519	100.00222792	78
1	26598	100.00226282	78
1	26677	100.00232792	78
1	26756	100.00236282	78
1	26835	100.00242792	78
1	26914	100.00246282	78
1	26993	100.00252792	78
1	27072	100.00256282	78
1	27151	100.00262792	78
1	27230	100.00266282	78
1	27309	100.00272792	78
1	27388	100.00276282	78
1	27467	100.00282792	78
1	27546	100.00286282	78
1	27625	100.00292792	78
1	27704	100.00296282	78
1	27783	100.00302792	78
1	27862	100.00306282	78
1	27941	100.00312792	78
1	28020	100.00316282	78
1	28099	100.00322792	78
1	28178	100.00326282	78
1	28257	100.00332792	78
1	28336	100.00336282	78
1	28415	100.00342792	78
1	28494	100.00346282	78
1	28573	100.00352792	78
1	28652	100.00356282	78
1	28731	100.00362792	78
1	28810	100.00366282	78
1	28889	100.00372792	78
1	28968	100.00376282	78
1	29047	100.00382792	78
1	29126	100.00386282	78
1	29205	100.00392792	78
1	29284	100.00396282	78
1	29363	100.00402792	78
1	29442	100.00406282	78
1	29521	100.00412792	78
1	29600	100.00416282	78
1	29679	100.00422792	78
1	29758	100.00426282	78
1	29837	100.00432792	78
1	29916	100.00436282	78
1	29995	100.00442792	78
1	30074	100.00446282	78
1	30153	100.00452792	78
1	30232	100.00456282	78
1	30311	100.00462792	78
1	30390	100.00466282	78
1	30469	100.00472792	78
1	30548	100.00476282	78
1	30627	100.00482792	78
1	30706	100.00486282	78
1	30785	100.00492792	78
1	30864	100.00496282	78
1	30943	100.00502792	78
1	31022	100.00506282	78
1	31101	100.00512792	78
1	31180	100.00516282	78
1	31259	100.00522792	78
1	31338	100.00526282	78
1	31417	100.00532792	78
1	31496	100.00536282	78
1	31575	100.00542792	78
1	31654	100.00546282	78
1	31733	100.00552792	78
1	31812	100.00556282	78
1	31891	100.00562792	78
1	31970	100.00566282	78
1	32049	100.00572792	78
1	32128	100.00576282	78
1	32207	100.00582792	78
1	32286	100.00586282	78
1	32365	100.00592792	78
1	32444	100.00596282	78
1	32523	100.00602792	78
1	32602	100.00606282	78
1	32681	100.00612792	78
1	32760	100.00616282	78
1	32839	100.00622792	78
1	32918	100.00626282	78
1	32997	100.00632792	78
1	33076	100.00636282	78
2	9	0.08783490417	82
2	1248	1.08783490417	82
2	1452	2.08783490417	82
2	1656	3.08783490417	82
2	1862	4.08783490417	82
2	2080	5.08783490417	82
2	3045	6.08783490417	82
2	3249	7.08783490417	82
2	3453	8.08783490417	82
2	3657	9.08783490417	82
2	3861	10.08783490417	82
2	4221	11.08783490417	82
2	4425	12.08783490417	82
2	4629	13.08783490417	82
2	4833	14.08783490417	82
2	5037	15.08783490417	82
2	5241	16.08783490417	82
2	5445	17.08783490417	82
2	5649	18.08783490417	82
2	5853	19.08783490417	82
2	6057	20.08783490417	82
2	6261	21.08783490417	82
2	6465	22.08783490417	82
2	6669	23.08783490417	82
2	6873	24.08783490417	82
2	7077	25.08783490417	82
2	7281	26.08783490417	82
2	7485	27.08783490417	82
2	7689	28.08783490417	82
2	7893	29.08783490417	82
2	8097	30.08783490417	82
2	8301	31.08783490417	82
2	8505	32.08783490417	82
2	8709	33.08783490417	82
2	8913	34.08783490417	82
2	9117	35.08783490417	82
2	9321	36.08783490417	82
2	9525	37.08783490417	82
2	9729	38.08783490417	82
2	9933	39.08783490417	82
2	10137	40.08783490417	82
2	10341	41.08783490417	82
2	10545	42.08783490417	82
2	10749	43.08783490417	82
2	10953	44.08783490417	82
2	11157	45.08783490417	82
2	11361	46.08783490417	82
2	11565	47.08783490417	82
2	11769	48.08783490417	82
2	11973	49.08783490417	82
2	12177	50.08783490417	82
2	12381	51.08783490417	82
2	12585	52.08783490417	82
2	12789	53.08783490417	82
2	12993	54.08783490417	82
2	13197	55.08783490417	82
2	13401	56.08783490417	82
2	13605	57.08783490417	82
2	13809	58.08783490417	82
2	14013	59.08783490417	82
2	14217	60.08783490417	82
2	14421	61.08783490417	82
2	14625	62.08783490417	82
2	14829	63.08783490417	82
2	15033	64.08783490417	82
2	15237	65.08783490417	82
2	15441	66.08783490417	82
2	15645	67.08783490417	82
2	15849	68.08783490417	82
2	16053	69.08783490417	82
2	16257	70.08783490417	82
2	16461	71.08783490417	82
2	16665	72.08783490417	82
2	16869	73.08783490417	82
2	17073	74.08783490417	82
2	17277	75.08783490417	82
2	17481	76.08783490417	82
2	17685	77.08783490417	82
2	17889	78.08783490417	82
2	18093	79.08783490417	82
2	18297	80.08783490417	82
2	18501	81.08783490417	82
2	18705	82.08783490417	82
2	18909	83.08783490417	82
2	19113	84.08783490417	82
2	19317	85.08783490417	82
2	19521	86.08783490417	82
2	19725	87.08783490417	82
2	19929	88.08783490417	82
2	20133	89.08783490417	82
2	20337	90.08783490417	82
2	20541	91.08783490417	82
2	20745	92.08783490417	82
2	20949	93.08783490417	82
2	21153	94.08783490417	82
2	21357	95.08783490417	82
2	21561	96.08783490417	82
2	21765	97.08783490417	82
2	21969	98.08783490417	82
2	22173	99.08783490417	82
2	22424	100.00001162	64
2	22680	100.00006496	78
2	22784	100.00007952	78
2	22848	100.00008736	78
2	22913	100.0000952	78
2	22994	100.00010304	78
2	23080	100.00011442	78
2	23155	100.00012442	78
2	23191	100.00013226	78
2	23216	100.0001401	78
2	23283	100.00017284	78
2	23363	100.0002348	78
2	23442	100.0002697	78
2	23521	100.0003348	78
2	23600	100.0003697	78
2	23679	100.0004348	78
2	23758	100.0004697	78
2	23837	100.0005348	78
2	23916	100.0005697	78
2	23995	100.0006348	78
2	24074	100.0006697	78
2	24153	100.0007348	78
2	24232	100.0007697	78
2	24311	100.0008348	78
2	24390	100.0008697	78
2	24469	100.0009348	78
2	24548	100.0009697	78
2	24627	100.0010348	78
2	24706	100.0010697	78
2	24785	100.0011348	78
2	24864	100.0011697	78
2	24943	100.0012348	78
2	25022	100.0012697	78
2	25101	100.0013348	78
2	25180	100.0013697	78
2	25259	100.0014348	78
2	25338	100.0014697	78
2	25417	100.0015348	78
2	25496	100.0015697	78
2	25575	100.0016348	78
2	25654	100.0016697	78
2	25733	100.0017348	78
2	25812	100.0017697	78
2	25891	100.0018348	78
2	25970	100.0018697	78
2	26049	100.0019348	78
2	26128	100.0019697	78
2	26207	100.0020348	78
2	26286	100.0020697	78
2	26365	100.0021348	78
2	26444	100.0021697	78
2	26523	100.0022348	78
2	26602	100.0022697	78
2	26681	100.0023348	78
2	26760	100.0023697	78
2	26839	100.0024348	78
2	26918	100.0024697	78
2	26997	100.0025348	78
2	27076	100.0025697	78
2	27155	100.0026348	78
2	27234	100.0026697	78
2	27313	100.0027348	78
2	27392	100.0027697	78
2	27471	100.0028348	78
2	27550	100.0028697	78
2	27629	100.0029348	78
2	27708	100.0029697	78
2	27787	100.0030348	78
2	27866	100.0030697	78
2	27945	100.0031348	78
2	28024	100.0031697	78
2	28103	100.0032348	78
2	28182	100.0032697	78
2	28261	100.0033348	78
2	28340	100.0033697	78
2	28419	100.0034348	78
2	28498	100.0034697	78
2	28577	100.0035348	78
2	28656	100.0035697	78
2	28735	100.0036348	78
2	28814	100.0036697	78
2	28893	100.0037348	78
2	28972	100.0037697	78
2	29051	100.0038348	78
2	29130	100.0038697	78
2	29209	100.0039348	78
2	29288	100.0039697	78
2	29367	100.0040348	78
2	29446	100.0040697	78
2	29525	100.0041348	78
2	29604	100.0041697	78
2	29683	100.0042348	78
2	29762	100.0042697	78
2	29841	100.0043348	78
2	29920	100.0043697	78
2	29999	100.0044348	78
2	30078	100.0044697	78
2	30157	100.0045348	78
2	30236	100.0045697	78
2	30315	100.0046348	78
2	30394	100.0046697	78
2	30473	100.0047348	78
2	30552	100.0047697	78
2	30631	100.0048348	78
2	30710	100.0048697	78
2	30789	100.0049348	78
2	30868	100.0049697	78
2	30947	100.0050348	78
2	31026	100.0050697	78
2	31105	100.0051348	78
2	31184	100.0051697	78
2	31263	100.0052348	78
2	31342	100.0052697	78
2	31421	100.0053348	78
2	31500	100.0053697	78
2	31579	100.0054348	78
2	31658	100.0054697	78
2	31737	100.0055348	78
2	31816	100.0055697	78
2	31895	100.0056348	78
2	31974	100.0056697	78
2	32053	100.0057348	78
2	32132	100.0057697	78
2	32211	100.0058348	78
2	32290	100.0058697	78
2	32369	100.0059348	78
2	32448	100.0059697	78
2	32527	100.0060348	78
2	32606	100.0060697	78
2	32685	100.0061348	78
2	32764	100.0061697	78
2	32843	100.0062348	78
2	32922	100.0062697	78
2	33001	100.0063348	78
2	33080	100.0063697	78
3	10	0.08783500417	82
3	1249	1.08783500417	82
3	1453	2.08783500417	82
3	1657	3.08783500417	82
3	1863	4.08783500417	82
3	2081	5.08783500417	82
3	3046	6.08783500417	82
3	3250	7.08783500417	82
3	3454	8.08783500417	82
3	3658	9.08783500417	82
3	3862	10.08783500417	82
3	4222	11.08783500417	82
3	4426	12.08783500417	82
3	4630	13.08783500417	82
3	4834	14.08783500417	82
3	5038	15.08783500417	82
3	5242	16.08783500417	82
3	5446	17.08783500417	82
3	5650	18.08783500417	82
3	5854	19.08783500417	82
3	6058	20.08783500417	82
3	6262	21.08783500417	82
3	6466	22.08783500417	82
3	6670	23.08783500417	82
3	6874	24.08783500417	82
3	7078	25.08783500417	82
3	7282	26.08783500417	82
3	7486	27.08783500417	82
3	7690	28.08783500417	82
3	7894	29.08783500417	82
3	8098	30.08783500417	82
3	8302	31.08783500417	82
3	8506	32.08783500417	82
3	8710	33.08783500417	82
3	8914	34.08783500417	82
3	9118	35.08783500417	82
3	9322	36.08783500417	82
3	9526	37.08783500417	82
3	9730	38.08783500417	82
3	9934	39.08783500417	82
3	10138	40.08783500417	82
3	10342	41.08783500417	82
3	10546	42.08783500417	82
3	10750	43.08783500417	82
3	10954	44.08783500417	82
3	11158	45.08783500417	82
3	11362	46.08783500417	82
3	11566	47.08783500417	82
3	11770	48.08783500417	82
3	11974	49.08783500417	82
3	12178	50.08783500417	82
3	12382	51.08783500417	82
3	12586	52.08783500417	82
3	12790	53.08783500417	82
3	12994	54.08783500417	82
3	13198	55.08783500417	82
3	13402	56.08783500417	82
3	13606	57.08783500417	82
3	13810	58.08783500417	82
3	14014	59.08783500417	82
3	14218	60.08783500417	82
3	14422	61.08783500417	82
3	14626	62.08783500417	82
3	14830	63.08783500417	82
3	15034	64.08783500417	82
3	15238	65.08783500417	82
3	15442	66.08783500417	82
3	15646	67.08783500417	82
3	15850	68.08783500417	82
3	16054	69.08783500417	82
3	16258	70.08783500417	82
3	16462	71.08783500417	82
3	16666	72.08783500417	82
3	16870	73.08783500417	82
3	17074	74.08783500417	82
3	17278	75.08783500417	82
3	17482	76.08783500417	82
3	17686	77.08783500417	82
3	17890	78.08783500417	82
3	18094	79.08783500417	82
3	18298	80.08783500417	82
3	18502	81.08783500417	82
3	18706	82.08783500417	82
3	18910	83.08783500417	82
3	19114	84.08783500417	82
3	19318	85.08783500417	82
3	19522	86.08783500417	82
3	19726	87.08783500417	82
3	19930	88.08783500417	82
3	20134	89.08783500417	82
3	20338	90.08783500417	82
3	20542	91.08783500417	82
3	20746	92.08783500417	82
3	20950	93.08783500417	82
3	21154	94.08783500417	82
3	21358	95.08783500417	82
3	21562	96.08783500417	82
3	21766	97.08783500417	82
3	21970	98.08783500417	82
3	22174	99.08783500417	82
3	22426	100.00001172	64
3	22682	100.00006506	78
3	22786	100.00007962	78
3	22849	100.00008746	78
3	22914	100.0000953	78
3	22995	100.00010314	78
3	23082	100.00011452	78
3	23156	100.00012452	78
3	23192	100.00013236	78
3	23217	100.0001402	78
3	23284	100.00017294	78
3	23365	100.0002349	78
3	23444	100.0002698	78
3	23523	100.0003349	78
3	23602	100.0003698	78
3	23681	100.0004349	78
3	23760	100.0004698	78
3	23839	100.0005349	78
3	23918	100.0005698	78
3	23997	100.0006349	78
3	24076	100.0006698	78
3	24155	100.0007349	78
3	24234	100.0007698	78
3	24313	100.0008349	78
3	24392	100.0008698	78
3	24471	100.0009349	78
3	24550	100.0009698	78
3	24629	100.0010349	78
3	24708	100.0010698	78
3	24787	100.0011349	78
3	24866	100.0011698	78
3	24945	100.0012349	78
3	25024	100.0012698	78
3	25103	100.0013349	78
3	25182	100.0013698	78
3	25261	100.0014349	78
3	25340	100.0014698	78
3	25419	100.0015349	78
3	25498	100.0015698	78
3	25577	100.0016349	78
3	25656	100.0016698	78
3	25735	100.0017349	78
3	25814	100.0017698	78
3	25893	100.0018349	78
3	25972	100.0018698	78
3	26051	100.0019349	78
3	26130	100.0019698	78
3	26209	100.0020349	78
3	26288	100.0020698	78
3	26367	100.0021349	78
3	26446	100.0021698	78
3	26525	100.0022349	78
3	26604	100.0022698	78
3	26683	100.0023349	78
3	26762	100.0023698	78
3	26841	100.0024349	78
3	26920	100.0024698	78
3	26999	100.0025349	78
3	27078	100.0025698	78
3	27157	100.0026349	78
3	27236	100.0026698	78
3	27315	100.0027349	78
3	27394	100.0027698	78
3	27473	100.0028349	78
3	27552	100.0028698	78
3	27631	100.0029349	78
3	27710	100.0029698	78
3	27789	100.0030349	78
3	27868	100.0030698	78
3	27947	100.0031349	78
3	28026	100.0031698	78
3	28105	100.0032349	78
3	28184	100.0032698	78
3	28263	100.0033349	78
3	28342	100.0033698	78
3	28421	100.0034349	78
3	28500	100.0034698	78
3	28579	100.0035349	78
3	28658	100.0035698	78
3	28737	100.0036349	78
3	28816	100.0036698	78
3	28895	100.0037349	78
3	28974	100.0037698	78
3	29053	100.0038349	78
3	29132	100.0038698	78
3	29211	100.0039349	78
3	29290	100.0039698	78
3	29369	100.0040349	78
3	29448	100.0040698	78
3	29527	100.0041349	78
3	29606	100.0041698	78
3	29685	100.0042349	78
3	29764	100.0042698	78
3	29843	100.0043349	78
3	29922	100.0043698	78
3	30001	100.0044349	78
3	30080	100.0044698	78
3	30159	100.0045349	78
3	30238	100.0045698	78
3	30317	100.0046349	78
3	30396	100.0046698	78
3	30475	100.0047349	78
3	30554	100.0047698	78
3	30633	100.0048349	78
3	30712	100.0048698	78
3	30791	100.0049349	78
3	30870	100.0049698	78
3	30949	100.0050349	78
3	31028	100.0050698	78
3	31107	100.0051349	78
3	31186	100.0051698	78
3	31265	100.0052349	78
3	31344	100.0052698	78
3	31423	100.0053349	78
3	31502	100.0053698	78
3	31581	100.0054349	78
3	31660	100.0054698	78
3	31739	100.0055349	78
3	31818	100.0055698	78
3	31897	100.0056349	78
3	31976	100.0056698	78
3	32055	100.0057349	78
3	32134	100.0057698	78
3	32213	100.0058349	78
3	32292	100.0058698	78
3	32371	100.0059349	78
3	32450	100.0059698	78
3	32529	100.0060349	78
3	32608	100.0060698	78
3	32687	100.0061349	78
3	32766	100.0061698	78
3	32845	100.0062349	78
3	32924	100.0062698	78
3	33003	100.0063349	78
3	33082	100.0063698	78
4	10	0.08783500417	82
4	1249	1.08783500417	82
4	1453	2.08783500417	82
4	1657	3.08783500417	82
4	1863	4.08783500417	82
4	2081	5.08783500417	82
4	3046	6.08783500417	82
4	3250	7.08783500417	82
4	3454	8.08783500417	82
4	3658	9.08783500417	82
4	3862	10.08783500417	82
4	4222	11.08783500417	82
4	4426	12.08783500417	82
4	4630	13.08783500417	82
4	4834	14.08783500417	82
4	5038	15.08783500417	82
4	5242	16.08783500417	82
4	5446	17.08783500417	82
4	5650	18.08783500417	82
4	5854	19.08783500417	82
4	6058	20.08783500417	82
4	6262	21.08783500417	82
4	6466	22.08783500417	82
4	6670	23.08783500417	82
4	6874	24.08783500417	82
4	7078	25.08783500417	82
4	7282	26.08783500417	82
4	7486	27.08783500417	82
4	7690	28.08783500417	82
4	7894	29.08783500417	82
4	8098	30.08783500417	82
4	8302	31.08783500417	82
4	8506	32.08783500417	82
4	8710	33.08783500417	82
4	8914	34.08783500417	82
4	9118	35.08783500417	82
4	9322	36.08783500417	82
4	9526	37.08783500417	82
4	9730	38.08783500417	82
4	9934	39.08783500417	82
4	10138	40.08783500417	82
4	10342	41.08783500417	82
4	10546	42.08783500417	82
4	10750	43.08783500417	82
4	10954	44.08783500417	82
4	11158	45.08783500417	82
4	11362	46.08783500417	82
4	11566	47.08783500417	82
4	11770	48.08783500417	82
4	11974	49.08783500417	82
4	12178	50.08783500417	82
4	12382	51.08783500417	82
4	12586	52.08783500417	82
4	12790	53.08783500417	82
4	12994	54.08783500417	82
4	13198	55.08783500417	82
4	13402	56.08783500417	82
4	13606	57.08783500417	82
4	13810	58.08783500417	82
4	14014	59.08783500417	82
4	14218	60.08783500417	82
4	14422	61.08783500417	82
4	14626	62.08783500417	82
4	14830	63.08783500417	82
4	15034	64.08783500417	82
4	15238	65.08783500417	82
4	15442	66.08783500417	82
4	15646	67.08783500417	82
4	15850	68.08783500417	82
4	16054	69.08783500417	82
4	16258	70.08783500417	82
4	16462	71.08783500417	82
4	16666	72.08783500417	82
4	16870	73.08783500417	82
4	17074	74.08783500417	82
4	17278	75.08783500417	82
4	17482	76.08783500417	82
4	17686	77.08783500417	82
4	17890	78.08783500417	82
4	18094	79.08783500417	82
4	18298	80.08783500417	82
4	18502	81.08783500417	82
4	18706	82.08783500417	82
4	18910	83.08783500417	82
4	19114	84.08783500417	82
4	19318	85.08783500417	82
4	19522	86.08783500417	82
4	19726	87.08783500417	82
4	19930	88.08783500417	82
4	20134	89.08783500417	82
4	20338	90.08783500417	82
4	20542	91.08783500417	82
4	20746	92.08783500417	82
4	20950	93.08783500417	82
4	21154	94.08783500417	82
4	21358	95.08783500417	82
4	21562	96.08783500417	82
4	21766	97.08783500417	82
4	21970	98.08783500417	82
4	22174	99.08783500417	82
4	22426	100.00001172	64
4	22682	100.00006506	78
4	22786	100.00007962	78
4	22849	100.00008746	78
4	22914	100.0000953	78
4	22995	100.00010314	78
4	23082	100.00011452	78
4	23156	100.00012452	78
4	23192	100.00013236	78
4	23217	100.0001402	78
4	23284	100.00017294	78
4	23365	100.0002349	78
4	23444	100.0002698	78
4	23523	100.0003349	78
4	23602	100.0003698	78
4	23681	100.0004349	78
4	23760	100.0004698	78
4	23839	100.0005349	78
4	23918	100.0005698	78
4	23997	100.0006349	78
4	24076	100.0006698	78
4	24155	100.0007349	78
4	24234	100.0007698	78
4	24313	100.0008349	78
4	24392	100.0008698	78
4	24471	100.0009349	78
4	24550	100.0009698	78
4	24629	100.0010349	78
4	24708	100.0010698	78
4	24787	100.0011349	78
4	24866	100.0011698	78
4	24945	100.0012349	78
4	25024	100.0012698	78
4	25103	100.0013349	78
4	25182	100.0013698	78
4	25261	100.0014349	78
4	25340	100.0014698	78
4	25419	100.0015349	78
4	25498	100.0015698	78
4	25577	100.0016349	78
4	25656	100.0016698	78
4	25735	100.0017349	78
4	25814	100.0017698	78
4	25893	100.0018349	78
4	25972	100.0018698	78
4	26051	100.0019349	78
4	26130	100.0019698	78
4	26209	100.0020349	78
4	26288	100.0020698	78
4	26367	100.0021349	78
4	26446	100.0021698	78
4	26525	100.0022349	78
4	26604	100.0022698	78
4	26683	100.0023349	78
4	26762	100.0023698	78
4	26841	100.0024349	78
4	26920	100.0024698	78
4	26999	100.0025349	78
4	27078	100.0025698	78
4	27157	100.0026349	78
4	27236	100.0026698	78
4	27315	100.0027349	78
4	27394	100.0027698	78
4	27473	100.0028349	78
4	27552	100.0028698	78
4	27631	100.0029349	78
4	27710	100.0029698	78
4	27789	100.0030349	78
4	27868	100.0030698	78
4	27947	100.0031349	78
4	28026	100.0031698	78
4	28105	100.0032349	78
4	28184	100.0032698	78
4	28263	100.0033349	78
4	28342	100.0033698	78
4	28421	100.0034349	78
4	28500	100.0034698	78
4	28579	100.0035349	78
4	28658	100.0035698	78
4	28737	100.0036349	78
4	28816	100.0036698	78
4	28895	100.0037349	78
4	28974	100.0037698	78
4	29053	100.0038349	78
4	29132	100.0038698	78
4	29211	100.0039349	78
4	29290	100.0039698	78
4	29369	100.0040349	78
4	29448	100.0040698	78
4	29527	100.0041349	78
4	29606	100.0041698	78
4	29685	100.0042349	78
4	29764	100.0042698	78
4	29843	100.0043349	78
4	29922	100.0043698	78
4	30001	100.0044349	78
4	30080	100.0044698	78
4	30159	100.0045349	78
4	30238	100.0045698	78
4	30317	100.0046349	78
4	30396	100.0046698	78
4	30475	100.0047349	78
4	30554	100.0047698	78
4	30633	100.0048349	78
4	30712	100.0048698	78
4	30791	100.0049349	78
4	30870	100.0049698	78
4	30949	100.0050349	78
4	31028	100.0050698	78
4	31107	100.0051349	78
4	31186	100.0051698	78
4	31265	100.0052349	78
4	31344	100.0052698	78
4	31423	100.0053349	78
4	31502	100.0053698	78
4	31581	100.0054349	78
4	31660	100.0054698	78
4	31739	100.0055349	78
4	31818	100.0055698	78
4	31897	100.0056349	78
4	31976	100.0056698	78
4	32055	100.0057349	78
4	32134	100.0057698	78
4	32213	100.0058349	78
4	32292	100.0058698	78
4	32371	100.0059349	78
4	32450	100.0059698	78
4	32529	100.0060349	78
4	32608	100.0060698	78
4	32687	100.0061349	78
4	32766	100.0061698	78
4	32845	100.0062349	78
4	32924	100.0062698	78
4	33003	100.0063349	78
4	33082	100.0063698	78
5	11	0.08783500417	64
5	1250	1.08783500417	64
5	1454	2.08783500417	64
5	1658	3.08783500417	64
5	1864	4.08783500417	64
5	2082	5.08783500417	64
5	3047	6.08783500417	64
5	3251	7.08783500417	64
5	3455	8.08783500417	64
5	3659	9.08783500417	64
5	3863	10.08783500417	64
5	4223	11.08783500417	64
5	4427	12.08783500417	64
5	4631	13.08783500417	64
5	4835	14.08783500417	64
5	5039	15.08783500417	64
5	5243	16.08783500417	64
5	5447	17.08783500417	64
5	5651	18.08783500417	64
5	5855	19.08783500417	64
5	6059	20.08783500417	64
5	6263	21.08783500417	64
5	6467	22.08783500417	64
5	6671	23.08783500417	64
5	6875	24.08783500417	64
5	7079	25.08783500417	64
5	7283	26.08783500417	64
5	7487	27.08783500417	64
5	7691	28.08783500417	64
5	7895	29.08783500417	64
5	8099	30.08783500417	64
5	8303	31.08783500417	64
5	8507	32.08783500417	64
5	8711	33.08783500417	64
5	8915	34.08783500417	64
5	9119	35.08783500417	64
5	9323	36.08783500417	64
5	9527	37.08783500417	64
5	9731	38.08783500417	64
5	9935	39.08783500417	64
5	10139	40.08783500417	64
5	10343	41.08783500417	64
5	10547	42.08783500417	64
5	10751	43.08783500417	64
5	10955	44.08783500417	64
5	11159	45.08783500417	64
5	11363	46.08783500417	64
5	11567	47.08783500417	64
5	11771	48.08783500417	64
5	11975	49.08783500417	64
5	12179	50.08783500417	64
5	12383	51.08783500417	64
5	12587	52.08783500417	64
5	12791	53.08783500417	64
5	12995	54.08783500417	64
5	13199	55.08783500417	64
5	13403	56.08783500417	64
5	13607	57.08783500417	64
5	13811	58.08783500417	64
5	14015	59.08783500417	64
5	14219	60.08783500417	64
5	14423	61.08783500417	64
5	14627	62.08783500417	64
5	14831	63.08783500417	64
5	15035	64.08783500417	64
5	15239	65.08783500417	64
5	15443	66.08783500417	64
5	15647	67.08783500417	64
5	15851	68.08783500417	64
5	16055	69.08783500417	64
5	16259	70.08783500417	64
5	16463	71.08783500417	64
5	16667	72.08783500417	64
5	16871	73.08783500417	64
5	17075	74.08783500417	64
5	17279	75.08783500417	64
5	17483	76.08783500417	64
5	17687	77.08783500417	64
5	17891	78.08783500417	64
5	18095	79.08783500417	64
5	18299	80.08783500417	64
5	18503	81.08783500417	64
5	18707	82.08783500417	64
5	18911	83.08783500417	64
5	19115	84.08783500417	64
5	19319	85.08783500417	64
5	19523	86.08783500417	64
5	19727	87.08783500417	64
5	19931	88.08783500417	64
5	20135	89.08783500417	64
5	20339	90.08783500417	64
5	20543	91.08783500417	64
5	20747	92.08783500417	64
5	20951	93.08783500417	64
5	21155	94.08783500417	64
5	21359	95.08783500417	64
5	21563	96.08783500417	64
5	21767	97.08783500417	64
5	21971	98.08783500417	64
5	22175	99.08783500417	64
5	22428	100.00001172	46
5	22684	100.00006506	60
5	22788	100.00007962	60
5	22852	100.00008746	60
5	22916	100.0000953	60
5	22997	100.00010314	60
5	23084	100.00011452	60
5	23157	100.00012452	60
5	23193	100.00013236	60
5	23218	100.0001402	60
5	23285	100.00017294	60
5	23367	100.0002349	60
5	23446	100.0002698	60
5	23525	100.0003349	60
5	23604	100.0003698	60
5	23683	100.0004349	60
5	23762	100.0004698	60
5	23841	100.0005349	60
5	23920	100.0005698	60
5	23999	100.0006349	60
5	24078	100.0006698	60
5	24157	100.0007349	60
5	24236	100.0007698	60
5	24315	100.0008349	60
5	24394	100.0008698	60
5	24473	100.0009349	60
5	24552	100.0009698	60
5	24631	100.0010349	60
5	24710	100.0010698	60
5	24789	100.0011349	60
5	24868	100.0011698	60
5	24947	100.0012349	60
5	25026	100.0012698	60
5	25105	100.0013349	60
5	25184	100.0013698	60
5	25263	100.0014349	60
5	25342	100.0014698	60
5	25421	100.0015349	60
5	25500	100.0015698	60
5	25579	100.0016349	60
5	25658	100.0016698	60
5	25737	100.0017349	60
5	25816	100.0017698	60
5	25895	100.0018349	60
5	25974	100.0018698	60
5	26053	100.0019349	60
5	26132	100.0019698	60
5	26211	100.0020349	60
5	26290	100.0020698	60
5	26369	100.0021349	60
5	26448	100.0021698	60
5	26527	100.0022349	60
5	26606	100.0022698	60
5	26685	100.0023349	60
5	26764	100.0023698	60
5	26843	100.0024349	60
5	26922	100.0024698	60
5	27001	100.0025349	60
5	27080	100.0025698	60
5	27159	100.0026349	60
5	27238	100.0026698	60
5	27317	100.0027349	60
5	27396	100.0027698	60
5	27475	100.0028349	60
5	27554	100.0028698	60
5	27633	100.0029349	60
5	27712	100.0029698	60
5	27791	100.0030349	60
5	27870	100.0030698	60
5	27949	100.0031349	60
5	28028	100.0031698	60
5	28107	100.0032349	60
5	28186	100.0032698	60
5	28265	100.0033349	60
5	28344	100.0033698	60
5	28423	100.0034349	60
5	28502	100.0034698	60
5	28581	100.0035349	60
5	28660	100.0035698	60
5	28739	100.0036349	60
5	28818	100.0036698	60
5	28897	100.0037349	60
5	28976	100.0037698	60
5	29055	100.0038349	60
5	29134	100.0038698	60
5	29213	100.0039349	60
5	29292	100.0039698	60
5	29371	100.0040349	60
5	29450	100.0040698	60
5	29529	100.0041349	60
5	29608	100.0041698	60
5	29687	100.0042349	60
5	29766	100.0042698	60
5	29845	100.0043349	60
5	29924	100.0043698	60
5	30003	100.0044349	60
5	30082	100.0044698	60
5	30161	100.0045349	60
5	30240	100.0045698	60
5	30319	100.0046349	60
5	30398	100.0046698	60
5	30477	100.0047349	60
5	30556	100.0047698	60
5	30635	100.0048349	60
5	30714	100.0048698	60
5	30793	100.0049349	60
5	30872	100.0049698	60
5	30951	100.0050349	60
5	31030	100.0050698	60
5	31109	100.0051349	60
5	31188	100.0051698	60
5	31267	100.0052349	60
5	31346	100.0052698	60
5	31425	100.0053349	60
5	31504	100.0053698	60
5	31583	100.0054349	60
5	31662	100.0054698	60
5	31741	100.0055349	60
5	31820	100.0055698	60
5	31899	100.0056349	60
5	31978	100.0056698	60
5	32057	100.0057349	60
5	32136	100.0057698	60
5	32215	100.0058349	60
5	32294	100.0058698	60
5	32373	100.0059349	60
5	32452	100.0059698	60
5	32531	100.0060349	60
5	32610	100.0060698	60
5	32689	100.0061349	60
5	32768	100.0061698	60
5	32847	100.0062349	60
5	32926	100.0062698	60
5	33005	100.0063349	60
5	33084	100.0063698	60
6	16	0.089228422814	64
6	467	0.10853332675	52
6	485	0.10854600675	92
6	507	0.10856508675	52
6	508	0.10856508675	68
6	525	0.10857356675	96
6	526	0.10857356675	72
6	571	0.10859696675	120
6	912	0.111818040164	96
6	950	0.111826840164	72
6	984	0.111835960164	76
6	1255	1.089228422814	68
6	1459	2.089228422814	68
6	1663	3.089228422814	68
6	1869	4.089228422814	68
6	2087	5.089228422814	68
6	2220	5.096459120613	108
6	2347	5.096928395973	120
6	2679	5.10859696675	28
6	2698	5.10860528675	68
6	2699	5.10860528675	28
6	2933	6	104
6	3052	6.089228422814	68
6	3256	7.089228422814	68
6	3460	8.089228422814	68
6	3664	9.089228422814	68
6	3868	10.089228422814	68
6	3985	10.096469400613	120
6	4228	11.089228422814	68
6	4432	12.089228422814	68
6	4636	13.089228422814	68
6	4840	14.089228422814	68
6	5044	15.089228422814	68
6	5248	16.089228422814	68
6	5452	17.089228422814	68
6	5656	18.089228422814	68
6	5860	19.089228422814	68
6	6064	20.089228422814	68
6	6268	21.089228422814	68
6	6472	22.089228422814	68
6	6676	23.089228422814	68
6	6880	24.089228422814	68
6	7084	25.089228422814	68
6	7288	26.089228422814	68
6	7492	27.089228422814	68
6	7696	28.089228422814	68
6	7900	29.089228422814	68
6	8104	30.089228422814	68
6	8308	31.089228422814	68
6	8512	32.089228422814	68
6	8716	33.089228422814	68
6	8920	34.089228422814	68
6	9124	35.089228422814	68
6	9328	36.089228422814	68
6	9532	37.089228422814	68
6	9736	38.089228422814	68
6	9940	39.089228422814	68
6	10144	40.089228422814	68
6	10348	41.089228422814	68
6	10552	42.089228422814	68
6	10756	43.089228422814	68
6	10960	44.089228422814	68
6	11164	45.089228422814	68
6	11368	46.089228422814	68
6	11572	47.089228422814	68
6	11776	48.089228422814	68
6	11980	49.089228422814	68
6	12184	50.089228422814	68
6	12388	51.089228422814	68
6	12592	52.089228422814	68
6	12796	53.089228422814	68
6	13000	54.089228422814	68
6	13204	55.089228422814	68
6	13408	56.089228422814	68
6	13612	57.089228422814	68
6	13816	58.089228422814	68
6	14020	59.089228422814	68
6	14224	60.089228422814	68
6	14428	61.089228422814	68
6	14632	62.089228422814	68
6	14836	63.089228422814	68
6	15040	64.089228422814	68
6	15244	65.089228422814	68
6	15448	66.089228422814	68
6	15652	67.089228422814	68
6	15856	68.089228422814	68
6	16060	69.089228422814	68
6	16264	70.089228422814	68
6	16468	71.089228422814	68
6	16672	72.089228422814	68
6	16876	73.089228422814	68
6	17080	74.089228422814	68
6	17284	75.089228422814	68
6	17488	76.089228422814	68
6	17692	77.089228422814	68
6	17896	78.089228422814	68
6	18100	79.089228422814	68
6	18304	80.089228422814	68
6	18508	81.089228422814	68
6	18712	82.089228422814	68
6	18916	83.089228422814	68
6	19120	84.089228422814	68
6	19324	85.089228422814	68
6	19528	86.089228422814	68
6	19732	87.089228422814	68
6	19936	88.089228422814	68
6	20140	89.089228422814	68
6	20344	90.089228422814	68
6	20548	91.089228422814	68
6	20752	92.089228422814	68
6	20956	93.089228422814	68
6	21160	94.089228422814	68
6	21364	95.089228422814	68
6	21568	96.089228422814	68
6	21772	97.089228422814	68
6	21976	98.089228422814	68
6	22180	99.089228422814	68
6	22471	100.00002456	28
6	22613	100.0000511	60
6	22709	100.00006566	60
6	22975	100.00010056	60
6	23104	100.00011624	60
6	23266	100.00016114	60
6	23421	100.00025584	60
6	23579	100.00035584	60
6	23737	100.00045584	60
6	23895	100.00055584	60
6	24053	100.00065584	60
6	24211	100.00075584	60
6	24369	100.00085584	60
6	24527	100.00095584	60
6	24685	100.00105584	60
6	24843	100.00115584	60
6	25001	100.00125584	60
6	25159	100.00135584	60
6	25317	100.00145584	60
6	25475	100.00155584	60
6	25633	100.00165584	60
6	25791	100.00175584	60
6	25949	100.00185584	60
6	26107	100.00195584	60
6	26265	100.00205584	60
6	26423	100.00215584	60
6	26581	100.00225584	60
6	26739	100.00235584	60
6	26897	100.00245584	60
6	27055	100.00255584	60
6	27213	100.00265584	60
6	27371	100.00275584	60
6	27529	100.00285584	60
6	27687	100.00295584	60
6	27845	100.00305584	60
6	28003	100.00315584	60
6	28161	100.00325584	60
6	28319	100.00335584	60
6	28477	100.00345584	60
6	28635	100.00355584	60
6	28793	100.00365584	60
6	28951	100.00375584	60
6	29109	100.00385584	60
6	29267	100.00395584	60
6	29425	100.00405584	60
6	29583	100.00415584	60
6	29741	100.00425584	60
6	29899	100.00435584	60
6	30057	100.00445584	60
6	30215	100.00455584	60
6	30373	100.00465584	60
6	30531	100.00475584	60
6	30689	100.00485584	60
6	30847	100.00495584	60
6	31005	100.00505584	60
6	31163	100.00515584	60
6	31321	100.00525584	60
6	31479	100.00535584	60
6	31637	100.00545584	60
6	31795	100.00555584	60
6	31953	100.00565584	60
6	32111	100.00575584	60
6	32269	100.00585584	60
6	32427	100.00595584	60
6	32585	100.00605584	60
6	32743	100.00615584	60
6	32901	100.00625584	60
6	33059	100.00635584	60
7	17	0.089228422814	82
7	468	0.10853332675	70
7	486	0.10854600675	110
7	509	0.10856508675	70
7	510	0.10856508675	86
7	527	0.10857356675	114
7	528	0.10857356675	90
7	574	0.10859696675	138
7	913	0.111818040164	114
7	951	0.111826840164	90
7	985	0.111835960164	94
7	1256	1.089228422814	86
7	1460	2.089228422814	86
7	1664	3.089228422814	86
7	1870	4.089228422814	86
7	2088	5.089228422814	86
7	2221	5.096459120613	126
7	2349	5.096928395973	138
7	2680	5.10859696675	64
7	2700	5.10860528675	86
7	2701	5.10860528675	64
7	2947	6	122
7	3053	6.089228422814	86
7	3257	7.089228422814	86
7	3461	8.089228422814	86
7	3665	9.089228422814	86
7	3869	10.089228422814	86
7	3986	10.096469400613	138
7	4229	11.089228422814	86
7	4433	12.089228422814	86
7	4637	13.089228422814	86
7	4841	14.089228422814	86
7	5045	15.089228422814	86
7	5249	16.089228422814	86
7	5453	17.089228422814	86
7	5657	18.089228422814	86
7	5861	19.089228422814	86
7	6065	20.089228422814	86
7	6269	21.089228422814	86
7	6473	22.089228422814	86
7	6677	23.089228422814	86
7	6881	24.089228422814	86
7	7085	25.089228422814	86
7	7289	26.089228422814	86
7	7493	27.089228422814	86
7	7697	28.089228422814	86
7	7901	29.089228422814	86
7	8105	30.089228422814	86
7	8309	31.089228422814	86
7	8513	32.089228422814	86
7	8717	33.089228422814	86
7	8921	34.089228422814	86
7	9125	35.089228422814	86
7	9329	36.089228422814	86
7	9533	37.089228422814	86
7	9737	38.089228422814	86
7	9941	39.089228422814	86
7	10145	40.089228422814	86
7	10349	41.089228422814	86
7	10553	42.089228422814	86
7	10757	43.089228422814	86
7	10961	44.089228422814	86
7	11165	45.089228422814	86
7	11369	46.089228422814	86
7	11573	47.089228422814	86
7	11777	48.089228422814	86
7	11981	49.089228422814	86
7	12185	50.089228422814	86
7	12389	51.089228422814	86
7	12593	52.089228422814	86
7	12797	53.089228422814	86
7	13001	54.089228422814	86
7	13205	55.089228422814	86
7	13409	56.089228422814	86
7	13613	57.089228422814	86
7	13817	58.089228422814	86
7	14021	59.089228422814	86
7	14225	60.089228422814	86
7	14429	61.089228422814	86
7	14633	62.089228422814	86
7	14837	63.089228422814	86
7	15041	64.089228422814	86
7	15245	65.089228422814	86
7	15449	66.089228422814	86
7	15653	67.089228422814	86
7	15857	68.089228422814	86
7	16061	69.089228422814	86
7	16265	70.089228422814	86
7	16469	71.089228422814	86
7	16673	72.089228422814	86
7	16877	73.089228422814	86
7	17081	74.089228422814	86
7	17285	75.089228422814	86
7	17489	76.089228422814	86
7	17693	77.089228422814	86
7	17897	78.089228422814	86
7	18101	79.089228422814	86
7	18305	80.089228422814	86
7	18509	81.089228422814	86
7	18713	82.089228422814	86
7	18917	83.089228422814	86
7	19121	84.089228422814	86
7	19325	85.089228422814	86
7	19529	86.089228422814	86
7	19733	87.089228422814	86
7	19937	88.089228422814	86
7	20141	89.089228422814	86
7	20345	90.089228422814	86
7	20549	91.089228422814	86
7	20753	92.089228422814	86
7	20957	93.089228422814	86
7	21161	94.089228422814	86
7	21365	95.089228422814	86
7	21569	96.089228422814	86
7	21773	97.089228422814	86
7	21977	98.089228422814	86
7	22181	99.089228422814	86
7	22473	100.00002456	64
7	22616	100.0000511	78
7	22711	100.00006566	78
7	22977	100.00010056	78
7	23105	100.00011624	78
7	23267	100.00016114	78
7	23423	100.00025584	78
7	23581	100.00035584	78
7	23739	100.00045584	78
7	23897	100.00055584	78
7	24055	100.00065584	78
7	24213	100.00075584	78
7	24371	100.00085584	78
7	24529	100.00095584	78
7	24687	100.00105584	78
7	24845	100.00115584	78
7	25003	100.00125584	78
7	25161	100.00135584	78
7	25319	100.00145584	78
7	25477	100.00155584	78
7	25635	100.00165584	78
7	25793	100.00175584	78
7	25951	100.00185584	78
7	26109	100.00195584	78
7	26267	100.00205584	78
7	26425	100.00215584	78
7	26583	100.00225584	78
7	26741	100.00235584	78
7	26899	100.00245584	78
7	27057	100.00255584	78
7	27215	100.00265584	78
7	27373	100.00275584	78
7	27531	100.00285584	78
7	27689	100.00295584	78
7	27847	100.00305584	78
7	28005	100.00315584	78
7	28163	100.00325584	78
7	28321	100.00335584	78
7	28479	100.00345584	78
7	28637	100.00355584	78
7	28795	100.00365584	78
7	28953	100.00375584	78
7	29111	100.00385584	78
7	29269	100.00395584	78
7	29427	100.00405584	78
7	29585	100.00415584	78
7	29743	100.00425584	78
7	29901	100.00435584	78
7	30059	100.00445584	78
7	30217	100.00455584	78
7	30375	100.00465584	78
7	30533	100.00475584	78
7	30691	100.00485584	78
7	30849	100.00495584	78
7	31007	100.00505584	78
7	31165	100.00515584	78
7	31323	100.00525584	78
7	31481	100.00535584	78
7	31639	100.00545584	78
7	31797	100.00555584	78
7	31955	100.00565584	78
7	32113	100.00575584	78
7	32271	100.00585584	78
7	32429	100.00595584	78
7	32587	100.00605584	78
7	32745	100.00615584	78
7	32903	100.00625584	78
7	33061	100.00635584	78
8	18	0.089235622814	82
8	470	0.10853956675	70
8	488	0.10855544675	110
8	512	0.10857132675	70
8	530	0.10857980675	86
8	551	0.10859052675	114
8	578	0.10859932675	90
8	599	0.10861196675	138
8	960	0.111827800164	114
8	992	0.111836600164	90
8	1029	0.111845720164	94
8	1257	1.089235942814	86
8	1461	2.089235942814	86
[...]
165	52524	100.0186698	6.98e-005
165	52682	100.0187698	6.98e-005
165	52840	100.0188698	6.98e-005
165	52998	100.0189698	6.98e-005
165	53156	100.0190698	6.98e-005
165	53314	100.0191698	6.98e-005
165	53472	100.0192698	6.98e-005
165	53630	100.0193698	6.98e-005
165	53788	100.0194698	6.98e-005
165	53946	100.0195698	6.98e-005
165	54104	100.0196698	6.98e-005
165	54262	100.0197698	6.98e-005
165	54420	100.0198698	6.98e-005
165	54578	100.0199698	6.98e-005
165	54736	100.0200698	6.98e-005
165	54894	100.0201698	6.98e-005
165	55052	100.0202698	6.98e-005
165	55210	100.0203698	6.98e-005
165	55368	100.0204698	6.98e-005
165	55526	100.0205698	6.98e-005
165	55684	100.0206698	6.98e-005
165	55842	100.0207698	6.98e-005
165	56000	100.0208698	6.98e-005
165	56158	100.0209698	6.98e-005
165	56316	100.0210698	6.98e-005
165	56474	100.0211698	6.98e-005
165	56632	100.0212698	6.98e-005
165	56790	100.0213698	6.98e-005
165	56948	100.0214698	6.98e-005
165	57106	100.0215698	6.98e-005
165	57264	100.0216698	6.98e-005
165	57422	100.0217698	6.98e-005
165	57580	100.0218698	6.98e-005
165	57738	100.0219698	6.98e-005
165	57896	100.0220698	6.98e-005
165	58054	100.0221698	6.98e-005
165	58212	100.0222698	6.98e-005
165	58370	100.0223698	6.98e-005
165	58528	100.0224698	6.98e-005
165	58686	100.0225698	6.98e-005
165	58844	100.0226698	6.98e-005
165	59002	100.0227698	6.98e-005
165	59160	100.0228698	6.98e-005
165	59318	100.0229698	6.98e-005
165	59476	100.0230698	6.98e-005
165	59634	100.0231698	6.98e-005
165	59792	100.0232698	6.98e-005
165	59950	100.0233698	6.98e-005
165	60108	100.0234698	6.98e-005
165	60266	100.0235698	6.98e-005
165	60424	100.0236698	6.98e-005
165	60582	100.0237698	6.98e-005
165	60740	100.0238698	6.98e-005
165	60898	100.0239698	6.98e-005
165	61056	100.0240698	6.98e-005
165	61214	100.0241698	6.98e-005
165	61372	100.0242698	6.98e-005
165	61530	100.0243698	6.98e-005
165	61688	100.0244698	6.98e-005
165	61846	100.0245698	6.98e-005
165	62004	100.0246698	6.98e-005
165	62162	100.0247698	6.98e-005
165	62320	100.0248698	6.98e-005
165	62478	100.0249698	6.98e-005
165	62636	100.0250698	6.98e-005
165	62794	100.0251698	6.98e-005
165	62952	100.0252698	6.98e-005
165	63110	100.0253698	6.98e-005
165	63268	100.0254698	6.98e-005
165	63426	100.0255698	6.98e-005
165	63584	100.0256698	6.98e-005
165	63742	100.0257698	6.98e-005
165	63900	100.0258698	6.98e-005
165	64058	100.0259698	6.98e-005
165	64216	100.0260698	6.98e-005
165	64374	100.0261698	6.98e-005
165	64532	100.0262698	6.98e-005
165	64690	100.0263698	6.98e-005
165	64848	100.0264698	6.98e-005
165	65006	100.0265698	6.98e-005
165	65164	100.0266698	6.98e-005
165	65322	100.0267698	6.98e-005
165	65480	100.0268698	6.98e-005
165	65638	100.0269698	6.98e-005
165	65796	100.0270698	6.98e-005
165	65954	100.0271698	6.98e-005
165	66112	100.0272698	6.98e-005
165	66270	100.0273698	6.98e-005
165	66428	100.0274698	6.98e-005
165	66586	100.0275698	6.98e-005
165	66744	100.0276698	6.98e-005
165	66902	100.0277698	6.98e-005
165	67060	100.0278698	6.98e-005
165	67218	100.0279698	6.98e-005
165	67376	100.0280698	6.98e-005
165	67534	100.0281698	6.98e-005
165	67692	100.0282698	6.98e-005
165	67850	100.0283698	6.98e-005
165	68008	100.0284698	6.98e-005
165	68166	100.0285698	6.98e-005
165	68324	100.0286698	6.98e-005
165	68482	100.0287698	6.98e-005
165	68640	100.0288698	6.98e-005
165	68798	100.0289698	6.98e-005
165	68956	100.0290698	6.98e-005
165	69114	100.0291698	6.98e-005
165	69272	100.0292698	6.98e-005
165	69430	100.0293698	6.98e-005
165	69588	100.0294698	6.98e-005
165	69746	100.0295698	6.98e-005
165	69904	100.0296698	6.98e-005
165	70062	100.0297698	6.98e-005
165	70220	100.0298698	6.98e-005
165	70378	100.0299698	6.98e-005
165	70536	100.0300698	6.98e-005
165	70694	100.0301698	6.98e-005
165	70852	100.0302698	6.98e-005
165	71010	100.0303698	6.98e-005
165	71168	100.0304698	6.98e-005
165	71326	100.0305698	6.98e-005
165	71484	100.0306698	6.98e-005
165	71642	100.0307698	6.98e-005
165	71800	100.0308698	6.98e-005
165	71958	100.0309698	6.98e-005
165	72116	100.0310698	6.98e-005
165	72274	100.0311698	6.98e-005
165	72432	100.0312698	6.98e-005
165	72590	100.0313698	6.98e-005
165	72748	100.0314698	6.98e-005
165	72906	100.0315698	6.98e-005
165	73064	100.0316698	6.98e-005
165	73222	100.0317698	6.98e-005
165	73380	100.0318698	6.98e-005
165	73538	100.0319698	6.98e-005
165	73696	100.0320698	6.98e-005
165	73854	100.0321698	6.98e-005
165	74012	100.0322698	6.98e-005
165	74170	100.0323698	6.98e-005
165	74328	100.0324698	6.98e-005
172	33563	100.0066698	32
172	33721	100.0067698	32
172	33879	100.0068698	32
172	34037	100.0069698	32
172	34195	100.0070698	32
172	34353	100.0071698	32
172	34511	100.0072698	32
172	34669	100.0073698	32
172	34827	100.0074698	32
172	34985	100.0075698	32
172	35143	100.0076698	32
172	35301	100.0077698	32
172	35459	100.0078698	32
172	35617	100.0079698	32
172	35775	100.0080698	32
172	35933	100.0081698	32
172	36091	100.0082698	32
172	36249	100.0083698	32
172	36407	100.0084698	32
172	36565	100.0085698	32
172	36723	100.0086698	32
172	36881	100.0087698	32
172	37039	100.0088698	32
172	37197	100.0089698	32
172	37355	100.0090698	32
172	37513	100.0091698	32
172	37671	100.0092698	32
172	37829	100.0093698	32
172	37987	100.0094698	32
172	38145	100.0095698	32
172	38303	100.0096698	32
172	38461	100.0097698	32
172	38619	100.0098698	32
172	38777	100.0099698	32
172	38935	100.0100698	32
172	39093	100.0101698	32
172	39251	100.0102698	32
172	39409	100.0103698	32
172	39567	100.0104698	32
172	39725	100.0105698	32
172	39883	100.0106698	32
172	40041	100.0107698	32
172	40199	100.0108698	32
172	40357	100.0109698	32
172	40515	100.0110698	32
172	40673	100.0111698	32
172	40831	100.0112698	32
172	40989	100.0113698	32
172	41147	100.0114698	32
172	41305	100.0115698	32
172	41463	100.0116698	32
172	41621	100.0117698	32
172	41779	100.0118698	32
172	41937	100.0119698	32
172	42095	100.0120698	32
172	42253	100.0121698	32
172	42411	100.0122698	32
172	42569	100.0123698	32
172	42727	100.0124698	32
172	42885	100.0125698	32
172	43043	100.0126698	32
172	43201	100.0127698	32
172	43359	100.0128698	32
172	43517	100.0129698	32
172	43675	100.0130698	32
172	43833	100.0131698	32
172	43991	100.0132698	32
172	44149	100.0133698	32
172	44307	100.0134698	32
172	44465	100.0135698	32
172	44623	100.0136698	32
172	44781	100.0137698	32
172	44939	100.0138698	32
172	45097	100.0139698	32
172	45255	100.0140698	32
172	45413	100.0141698	32
172	45571	100.0142698	32
172	45729	100.0143698	32
172	45887	100.0144698	32
172	46045	100.0145698	32
172	46203	100.0146698	32
172	46361	100.0147698	32
172	46519	100.0148698	32
172	46677	100.0149698	32
172	46835	100.0150698	32
172	46993	100.0151698	32
172	47151	100.0152698	32
172	47309	100.0153698	32
172	47467	100.0154698	32
172	47625	100.0155698	32
172	47783	100.0156698	32
172	47941	100.0157698	32
172	48099	100.0158698	32
172	48257	100.0159698	32
172	48415	100.0160698	32
172	48573	100.0161698	32
172	48731	100.0162698	32
172	48889	100.0163698	32
172	49047	100.0164698	32
172	49205	100.0165698	32
172	49363	100.0166698	32
172	49521	100.0167698	32
172	49679	100.0168698	32
172	49837	100.0169698	32
172	49995	100.0170698	32
172	50153	100.0171698	32
172	50311	100.0172698	32
172	50469	100.0173698	32
172	50627	100.0174698	32
172	50785	100.0175698	32
172	50943	100.0176698	32
172	51101	100.0177698	32
172	51259	100.0178698	32
172	51417	100.0179698	32
172	51575	100.0180698	32
172	51733	100.0181698	32
172	51891	100.0182698	32
172	52049	100.0183698	32
172	52207	100.0184698	32
172	52365	100.0185698	32
172	52523	100.0186698	32
172	52681	100.0187698	32
172	52839	100.0188698	32
172	52997	100.0189698	32
172	53155	100.0190698	32
172	53313	100.0191698	32
172	53471	100.0192698	32
172	53629	100.0193698	32
172	53787	100.0194698	32
172	53945	100.0195698	32
172	54103	100.0196698	32
172	54261	100.0197698	32
172	54419	100.0198698	32
172	54577	100.0199698	32
172	54735	100.0200698	32
172	54893	100.0201698	32
172	55051	100.0202698	32
172	55209	100.0203698	32
172	55367	100.0204698	32
172	55525	100.0205698	32
172	55683	100.0206698	32
172	55841	100.0207698	32
172	55999	100.0208698	32
172	56157	100.0209698	32
172	56315	100.0210698	32
172	56473	100.0211698	32
172	56631	100.0212698	32
172	56789	100.0213698	32
172	56947	100.0214698	32
172	57105	100.0215698	32
172	57263	100.0216698	32
172	57421	100.0217698	32
172	57579	100.0218698	32
172	57737	100.0219698	32
172	57895	100.0220698	32
172	58053	100.0221698	32
172	58211	100.0222698	32
172	58369	100.0223698	32
172	58527	100.0224698	32
172	58685	100.0225698	32
172	58843	100.0226698	32
172	59001	100.0227698	32
172	59159	100.0228698	32
172	59317	100.0229698	32
172	59475	100.0230698	32
172	59633	100.0231698	32
172	59791	100.0232698	32
172	59949	100.0233698	32
172	60107	100.0234698	32
172	60265	100.0235698	32
172	60423	100.0236698	32
172	60581	100.0237698	32
172	60739	100.0238698	32
172	60897	100.0239698	32
172	61055	100.0240698	32
172	61213	100.0241698	32
172	61371	100.0242698	32
172	61529	100.0243698	32
172	61687	100.0244698	32
172	61845	100.0245698	32
172	62003	100.0246698	32
172	62161	100.0247698	32
172	62319	100.0248698	32
172	62477	100.0249698	32
172	62635	100.0250698	32
172	62793	100.0251698	32
172	62951	100.0252698	32
172	63109	100.0253698	32
172	63267	100.0254698	32
172	63425	100.0255698	32
172	63583	100.0256698	32
172	63741	100.0257698	32
172	63899	100.0258698	32
172	64057	100.0259698	32
172	64215	100.0260698	32
172	64373	100.0261698	32
172	64531	100.0262698	32
172	64689	100.0263698	32
172	64847	100.0264698	32
172	65005	100.0265698	32
172	65163	100.0266698	32
172	65321	100.0267698	32
172	65479	100.0268698	32
172	65637	100.0269698	32
172	65795	100.0270698	32
172	65953	100.0271698	32
172	66111	100.0272698	32
172	66269	100.0273698	32
172	66427	100.0274698	32
172	66585	100.0275698	32
172	66743	100.0276698	32
172	66901	100.0277698	32
172	67059	100.0278698	32
172	67217	100.0279698	32
172	67375	100.0280698	32
172	67533	100.0281698	32
172	67691	100.0282698	32
172	67849	100.0283698	32
172	68007	100.0284698	32
172	68165	100.0285698	32
172	68323	100.0286698	32
172	68481	100.0287698	32
172	68639	100.0288698	32
172	68797	100.0289698	32
172	68955	100.0290698	32
172	69113	100.0291698	32
172	69271	100.0292698	32
172	69429	100.0293698	32
172	69587	100.0294698	32
172	69745	100.0295698	32
172	69903	100.0296698	32
172	70061	100.0297698	32
172	70219	100.0298698	32
172	70377	100.0299698	32
172	70535	100.0300698	32
172	70693	100.0301698	32
172	70851	100.0302698	32
172	71009	100.0303698	32
172	71167	100.0304698	32
172	71325	100.0305698	32
172	71483	100.0306698	32
172	71641	100.0307698	32
172	71799	100.0308698	32
172	71957	100.0309698	32
172	72115	100.0310698	32
172	72273	100.0311698	32
172	72431	100.0312698	32
172	72589	100.0313698	32
172	72747	100.0314698	32
172	72905	100.0315698	32
172	73063	100.0316698	32
172	73221	100.0317698	32
172	73379	100.0318698	32
172	73537	100.0319698	32
172	73695	100.0320698	32
172	73853	100.0321698	32
172	74011	100.0322698	32
172	74169	100.0323698	32
172	74327	100.0324698	32
173	38935	100.0100698	2567677.6102802
173	54735	100.0200698	2560000
173	70535	100.0300698	2560000
174	33563	100.0066698	6.98e-005
174	33721	100.0067698	6.98e-005
174	33879	100.0068698	6.98e-005
174	34037	100.0069698	6.98e-005
174	34195	100.0070698	6.98e-005
174	34353	100.0071698	6.98e-005
174	34511	100.0072698	6.98e-005
174	34669	100.0073698	6.98e-005
174	34827	100.0074698	6.98e-005
174	34985	100.0075698	6.98e-005
174	35143	100.0076698	6.98e-005
174	35301	100.0077698	6.98e-005
174	35459	100.0078698	6.98e-005
174	35617	100.0079698	6.98e-005
174	35775	100.0080698	6.98e-005
174	35933	100.0081698	6.98e-005
174	36091	100.0082698	6.98e-005
174	36249	100.0083698	6.98e-005
174	36407	100.0084698	6.98e-005
174	36565	100.0085698	6.98e-005
174	36723	100.0086698	6.98e-005
174	36881	100.0087698	6.98e-005
174	37039	100.0088698	6.98e-005
174	37197	100.0089698	6.98e-005
174	37355	100.0090698	6.98e-005
174	37513	100.0091698	6.98e-005
174	37671	100.0092698	6.98e-005
174	37829	100.0093698	6.98e-005
174	37987	100.0094698	6.98e-005
174	38145	100.0095698	6.98e-005
174	38303	100.0096698	6.98e-005
174	38461	100.0097698	6.98e-005
174	38619	100.0098698	6.98e-005
174	38777	100.0099698	6.98e-005
174	38935	100.0100698	6.98e-005
174	39093	100.0101698	6.98e-005
174	39251	100.0102698	6.98e-005
174	39409	100.0103698	6.98e-005
174	39567	100.0104698	6.98e-005
174	39725	100.0105698	6.98e-005
174	39883	100.0106698	6.98e-005
174	40041	100.0107698	6.98e-005
174	40199	100.0108698	6.98e-005
174	40357	100.0109698	6.98e-005
174	40515	100.0110698	6.98e-005
174	40673	100.0111698	6.98e-005
174	40831	100.0112698	6.98e-005
174	40989	100.0113698	6.98e-005
174	41147	100.0114698	6.98e-005
174	41305	100.0115698	6.98e-005
174	41463	100.0116698	6.98e-005
174	41621	100.0117698	6.98e-005
174	41779	100.0118698	6.98e-005
174	41937	100.0119698	6.98e-005
174	42095	100.0120698	6.98e-005
174	42253	100.0121698	6.98e-005
174	42411	100.0122698	6.98e-005
174	42569	100.0123698	6.98e-005
174	42727	100.0124698	6.98e-005
174	42885	100.0125698	6.98e-005
174	43043	100.0126698	6.98e-005
174	43201	100.0127698	6.98e-005
174	43359	100.0128698	6.98e-005
174	43517	100.0129698	6.98e-005
174	43675	100.0130698	6.98e-005
174	43833	100.0131698	6.98e-005
174	43991	100.0132698	6.98e-005
174	44149	100.0133698	6.98e-005
174	44307	100.0134698	6.98e-005
174	44465	100.0135698	6.98e-005
174	44623	100.0136698	6.98e-005
174	44781	100.0137698	6.98e-005
174	44939	100.0138698	6.98e-005
174	45097	100.0139698	6.98e-005
174	45255	100.0140698	6.98e-005
174	45413	100.0141698	6.98e-005
174	45571	100.0142698	6.98e-005
174	45729	100.0143698	6.98e-005
174	45887	100.0144698	6.98e-005
174	46045	100.0145698	6.98e-005
174	46203	100.0146698	6.98e-005
174	46361	100.0147698	6.98e-005
174	46519	100.0148698	6.98e-005
174	46677	100.0149698	6.98e-005
174	46835	100.0150698	6.98e-005
174	46993	100.0151698	6.98e-005
174	47151	100.0152698	6.98e-005
174	47309	100.0153698	6.98e-005
174	47467	100.0154698	6.98e-005
174	47625	100.0155698	6.98e-005
174	47783	100.0156698	6.98e-005
174	47941	100.0157698	6.98e-005
174	48099	100.0158698	6.98e-005
174	48257	100.0159698	6.98e-005
174	48415	100.0160698	6.98e-005
174	48573	100.0161698	6.98e-005
174	48731	100.0162698	6.98e-005
174	48889	100.0163698	6.98e-005
174	49047	100.0164698	6.98e-005
174	49205	100.0165698	6.98e-005
174	49363	100.0166698	6.98e-005
174	49521	100.0167698	6.98e-005
174	49679	100.0168698	6.98e-005
174	49837	100.0169698	6.98e-005
174	49995	100.0170698	6.98e-005
174	50153	100.0171698	6.98e-005
174	50311	100.0172698	6.98e-005
174	50469	100.0173698	6.98e-005
174	50627	100.0174698	6.98e-005
174	50785	100.0175698	6.98e-005
174	50943	100.0176698	6.98e-005
174	51101	100.0177698	6.98e-005
174	51259	100.0178698	6.98e-005
174	51417	100.0179698	6.98e-005
174	51575	100.0180698	6.98e-005
174	51733	100.0181698	6.98e-005
174	51891	100.0182698	6.98e-005
174	52049	100.0183698	6.98e-005
174	52207	100.0184698	6.98e-005
174	52365	100.0185698	6.98e-005
174	52523	100.0186698	6.98e-005
174	52681	100.0187698	6.98e-005
174	52839	100.0188698	6.98e-005
174	52997	100.0189698	6.98e-005
174	53155	100.0190698	6.98e-005
174	53313	100.0191698	6.98e-005
174	53471	100.0192698	6.98e-005
174	53629	100.0193698	6.98e-005
174	53787	100.0194698	6.98e-005
174	53945	100.0195698	6.98e-005
174	54103	100.0196698	6.98e-005
174	54261	100.0197698	6.98e-005
174	54419	100.0198698	6.98e-005
174	54577	100.0199698	6.98e-005
174	54735	100.0200698	6.98e-005
174	54893	100.0201698	6.98e-005
174	55051	100.0202698	6.98e-005
174	55209	100.0203698	6.98e-005
174	55367	100.0204698	6.98e-005
174	55525	100.0205698	6.98e-005
174	55683	100.0206698	6.98e-005
174	55841	100.0207698	6.98e-005
174	55999	100.0208698	6.98e-005
174	56157	100.0209698	6.98e-005
174	56315	100.0210698	6.98e-005
174	56473	100.0211698	6.98e-005
174	56631	100.0212698	6.98e-005
174	56789	100.0213698	6.98e-005
174	56947	100.0214698	6.98e-005
174	57105	100.0215698	6.98e-005
174	57263	100.0216698	6.98e-005
174	57421	100.0217698	6.98e-005
174	57579	100.0218698	6.98e-005
174	57737	100.0219698	6.98e-005
174	57895	100.0220698	6.98e-005
174	58053	100.0221698	6.98e-005
174	58211	100.0222698	6.98e-005
174	58369	100.0223698	6.98e-005
174	58527	100.0224698	6.98e-005
174	58685	100.0225698	6.98e-005
174	58843	100.0226698	6.98e-005
174	59001	100.0227698	6.98e-005
174	59159	100.0228698	6.98e-005
174	59317	100.0229698	6.98e-005
174	59475	100.0230698	6.98e-005
174	59633	100.0231698	6.98e-005
174	59791	100.0232698	6.98e-005
174	59949	100.0233698	6.98e-005
174	60107	100.0234698	6.98e-005
174	60265	100.0235698	6.98e-005
174	60423	100.0236698	6.98e-005
174	60581	100.0237698	6.98e-005
174	60739	100.0238698	6.98e-005
174	60897	100.0239698	6.98e-005
174	61055	100.0240698	6.98e-005
174	61213	100.0241698	6.98e-005
174	61371	100.0242698	6.98e-005
174	61529	100.0243698	6.98e-005
174	61687	100.0244698	6.98e-005
174	61845	100.0245698	6.98e-005
174	62003	100.0246698	6.98e-005
174	62161	100.0247698	6.98e-005
174	62319	100.0248698	6.98e-005
174	62477	100.0249698	6.98e-005
174	62635	100.0250698	6.98e-005
174	62793	100.0251698	6.98e-005
174	62951	100.0252698	6.98e-005
174	63109	100.0253698	6.98e-005
174	63267	100.0254698	6.98e-005
174	63425	100.0255698	6.98e-005
174	63583	100.0256698	6.98e-005
174	63741	100.0257698	6.98e-005
174	63899	100.0258698	6.98e-005
174	64057	100.0259698	6.98e-005
174	64215	100.0260698	6.98e-005
174	64373	100.0261698	6.98e-005
174	64531	100.0262698	6.98e-005
174	64689	100.0263698	6.98e-005
174	64847	100.0264698	6.98e-005
174	65005	100.0265698	6.98e-005
174	65163	100.0266698	6.98e-005
174	65321	100.0267698	6.98e-005
174	65479	100.0268698	6.98e-005
174	65637	100.0269698	6.98e-005
174	65795	100.0270698	6.98e-005
174	65953	100.0271698	6.98e-005
174	66111	100.0272698	6.98e-005
174	66269	100.0273698	6.98e-005
174	66427	100.0274698	6.98e-005
174	66585	100.0275698	6.98e-005
174	66743	100.0276698	6.98e-005
174	66901	100.0277698	6.98e-005
174	67059	100.0278698	6.98e-005
174	67217	100.0279698	6.98e-005
174	67375	100.0280698	6.98e-005
174	67533	100.0281698	6.98e-005
174	67691	100.0282698	6.98e-005
174	67849	100.0283698	6.98e-005
174	68007	100.0284698	6.98e-005
174	68165	100.0285698	6.98e-005
174	68323	100.0286698	6.98e-005
174	68481	100.0287698	6.98e-005
174	68639	100.0288698	6.98e-005
174	68797	100.0289698	6.98e-005
174	68955	100.0290698	6.98e-005
174	69113	100.0291698	6.98e-005
174	69271	100.0292698	6.98e-005
174	69429	100.0293698	6.98e-005
174	69587	100.0294698	6.98e-005
174	69745	100.0295698	6.98e-005
174	69903	100.0296698	6.98e-005
174	70061	100.0297698	6.98e-005
174	70219	100.0298698	6.98e-005
174	70377	100.0299698	6.98e-005
174	70535	100.0300698	6.98e-005
174	70693	100.0301698	6.98e-005
174	70851	100.0302698	6.98e-005
174	71009	100.0303698	6.98e-005
174	71167	100.0304698	6.98e-005
174	71325	100.0305698	6.98e-005
174	71483	100.0306698	6.98e-005
174	71641	100.0307698	6.98e-005
174	71799	100.0308698	6.98e-005
174	71957	100.0309698	6.98e-005
174	72115	100.0310698	6.98e-005
174	72273	100.0311698	6.98e-005
174	72431	100.0312698	6.98e-005
174	72589	100.0313698	6.98e-005
174	72747	100.0314698	6.98e-005
174	72905	100.0315698	6.98e-005
174	73063	100.0316698	6.98e-005
174	73221	100.0317698	6.98e-005
174	73379	100.0318698	6.98e-005
174	73537	100.0319698	6.98e-005
174	73695	100.0320698	6.98e-005
174	73853	100.0321698	6.98e-005
174	74011	100.0322698	6.98e-005
174	74169	100.0323698	6.98e-005
174	74327	100.0324698	6.98e-005

